
  MJ192500                      

 11 11  0  0  0  0  0  0  0  0999 V2000
   -3.3036    0.6464    0.0000 C   0  0  0  0  0  0  0  0  0  0  0  0
   -4.0180    0.2339    0.0000 C   0  0  0  0  0  0  0  0  0  0  0  0
   -4.0180   -0.5911    0.0000 C   0  0  0  0  0  0  0  0  0  0  0  0
   -3.3036   -1.0036    0.0000 C   0  0  0  0  0  0  0  0  0  0  0  0
   -2.5891   -0.5911    0.0000 C   0  0  0  0  0  0  0  0  0  0  0  0
   -2.5891    0.2339    0.0000 C   0  0  0  0  0  0  0  0  0  0  0  0
   -3.3036   -1.8286    0.0000 Br  0  0  0  0  0  0  0  0  0  0  0  0
   -3.2173    1.4669    0.0000 C   0  0  0  0  0  0  0  0  0  0  0  0
   -2.4637    1.8025    0.0000 C   0  0  0  0  0  0  0  0  0  0  0  0
   -1.7100    1.4669    0.0000 O   0  0  0  0  0  0  0  0  0  0  0  0
   -2.4637    2.6275    0.0000 O   0  0  0  0  0  0  0  0  0  0  0  0
  1  2  2  0  0  0  0
  2  3  1  0  0  0  0
  3  4  2  0  0  0  0
  4  5  1  0  0  0  0
  5  6  2  0  0  0  0
  6  1  1  0  0  0  0
  4  7  1  0  0  0  0
  1  8  1  0  0  0  0
  8  9  1  0  0  0  0
  9 10  1  0  0  0  0
  9 11  2  0  0  0  0
M  END
