MODEL 1
REMARK VINA RESULT:    -4.755      0.000      0.000
REMARK INTER + INTRA:          -5.466
REMARK INTER:                  -5.361
REMARK INTRA:                  -0.105
REMARK UNBOUND:                -0.155
REMARK  Name = 
REMARK  2 active torsions:
REMARK  status: ('A' for Active; 'I' for Inactive)
REMARK    1  A    between atoms: C_1  and  C_8
REMARK    2  A    between atoms: C_8  and  C_9
REMARK                            x       y       z     vdW  Elec       q    Type
REMARK                         _______ _______ _______ _____ _____    ______ ____
ROOT
ATOM      1  C   UNL     1      19.754 -33.996 -19.855  0.00  0.00    -0.042 A 
ATOM      2  C   UNL     1      19.366 -33.069 -20.832  0.00  0.00    +0.005 A 
ATOM      3  C   UNL     1      19.476 -33.381 -22.188  0.00  0.00    +0.015 A 
ATOM      4  C   UNL     1      19.986 -34.621 -22.571  0.00  0.00    +0.018 A 
ATOM      5 BR   UNL     1      20.133 -35.047 -24.408  0.00  0.00    -0.050 Br
ATOM      6  C   UNL     1      20.395 -35.546 -21.612  0.00  0.00    +0.015 A 
ATOM      7  C   UNL     1      20.283 -35.230 -20.257  0.00  0.00    +0.005 A 
ENDROOT
BRANCH   1   8
ATOM      8  C   UNL     1      19.634 -33.658 -18.390  0.00  0.00    +0.087 C 
BRANCH   8   9
ATOM      9  C   UNL     1      18.239 -33.956 -17.844  0.00  0.00    +0.046 C 
ATOM     10  O   UNL     1      18.122 -35.058 -17.231  0.00  0.00    -0.549 OA
ATOM     11  O   UNL     1      17.381 -33.042 -18.022  0.00  0.00    -0.549 OA
ENDBRANCH   8   9
ENDBRANCH   1   8
TORSDOF 2
ENDMDL
MODEL 2
REMARK VINA RESULT:    -4.720      1.226      1.889
REMARK INTER + INTRA:          -5.426
REMARK INTER:                  -5.474
REMARK INTRA:                   0.047
REMARK UNBOUND:                -0.155
REMARK  Name = 
REMARK  2 active torsions:
REMARK  status: ('A' for Active; 'I' for Inactive)
REMARK    1  A    between atoms: C_1  and  C_8
REMARK    2  A    between atoms: C_8  and  C_9
REMARK                            x       y       z     vdW  Elec       q    Type
REMARK                         _______ _______ _______ _____ _____    ______ ____
ROOT
ATOM      1  C   UNL     1      19.903 -34.675 -20.149  0.00  0.00    -0.042 A 
ATOM      2  C   UNL     1      20.484 -35.411 -21.189  0.00  0.00    +0.005 A 
ATOM      3  C   UNL     1      20.473 -34.920 -22.496  0.00  0.00    +0.015 A 
ATOM      4  C   UNL     1      19.871 -33.692 -22.767  0.00  0.00    +0.018 A 
ATOM      5 BR   UNL     1      19.858 -33.024 -24.537  0.00  0.00    -0.050 Br
ATOM      6  C   UNL     1      19.271 -32.958 -21.746  0.00  0.00    +0.015 A 
ATOM      7  C   UNL     1      19.284 -33.451 -20.440  0.00  0.00    +0.005 A 
ENDROOT
BRANCH   1   8
ATOM      8  C   UNL     1      19.916 -35.205 -18.737  0.00  0.00    +0.087 C 
BRANCH   8   9
ATOM      9  C   UNL     1      19.223 -34.258 -17.760  0.00  0.00    +0.046 C 
ATOM     10  O   UNL     1      18.028 -34.560 -17.471  0.00  0.00    -0.549 OA
ATOM     11  O   UNL     1      19.943 -33.316 -17.315  0.00  0.00    -0.549 OA
ENDBRANCH   8   9
ENDBRANCH   1   8
TORSDOF 2
ENDMDL
MODEL 3
REMARK VINA RESULT:    -4.614      4.055      5.241
REMARK INTER + INTRA:          -5.308
REMARK INTER:                  -5.221
REMARK INTRA:                  -0.087
REMARK UNBOUND:                -0.155
REMARK  Name = 
REMARK  2 active torsions:
REMARK  status: ('A' for Active; 'I' for Inactive)
REMARK    1  A    between atoms: C_1  and  C_8
REMARK    2  A    between atoms: C_8  and  C_9
REMARK                            x       y       z     vdW  Elec       q    Type
REMARK                         _______ _______ _______ _____ _____    ______ ____
ROOT
ATOM      1  C   UNL     1      19.742 -34.484 -22.298  0.00  0.00    -0.042 A 
ATOM      2  C   UNL     1      20.251 -35.423 -21.391  0.00  0.00    +0.005 A 
ATOM      3  C   UNL     1      20.227 -35.166 -20.019  0.00  0.00    +0.015 A 
ATOM      4  C   UNL     1      19.702 -33.962 -19.551  0.00  0.00    +0.018 A 
ATOM      5 BR   UNL     1      19.668 -33.614 -17.692  0.00  0.00    -0.050 Br
ATOM      6  C   UNL     1      19.211 -33.010 -20.442  0.00  0.00    +0.015 A 
ATOM      7  C   UNL     1      19.235 -33.270 -21.813  0.00  0.00    +0.005 A 
ENDROOT
BRANCH   1   8
ATOM      8  C   UNL     1      19.766 -34.762 -23.780  0.00  0.00    +0.087 C 
BRANCH   8   9
ATOM      9  C   UNL     1      20.699 -33.813 -24.529  0.00  0.00    +0.046 C 
ATOM     10  O   UNL     1      21.903 -34.195 -24.614  0.00  0.00    -0.549 OA
ATOM     11  O   UNL     1      20.147 -32.786 -25.021  0.00  0.00    -0.549 OA
ENDBRANCH   8   9
ENDBRANCH   1   8
TORSDOF 2
ENDMDL
MODEL 4
REMARK VINA RESULT:    -4.609      1.315      2.088
REMARK INTER + INTRA:          -5.302
REMARK INTER:                  -5.168
REMARK INTRA:                  -0.134
REMARK UNBOUND:                -0.155
REMARK  Name = 
REMARK  2 active torsions:
REMARK  status: ('A' for Active; 'I' for Inactive)
REMARK    1  A    between atoms: C_1  and  C_8
REMARK    2  A    between atoms: C_8  and  C_9
REMARK                            x       y       z     vdW  Elec       q    Type
REMARK                         _______ _______ _______ _____ _____    ______ ____
ROOT
ATOM      1  C   UNL     1      19.309 -33.535 -20.901  0.00  0.00    -0.042 A 
ATOM      2  C   UNL     1      19.937 -34.653 -20.337  0.00  0.00    +0.005 A 
ATOM      3  C   UNL     1      20.635 -35.555 -21.142  0.00  0.00    +0.015 A 
ATOM      4  C   UNL     1      20.698 -35.345 -22.518  0.00  0.00    +0.018 A 
ATOM      5 BR   UNL     1      21.646 -36.565 -23.610  0.00  0.00    -0.050 Br
ATOM      6  C   UNL     1      20.061 -34.249 -23.097  0.00  0.00    +0.015 A 
ATOM      7  C   UNL     1      19.365 -33.349 -22.289  0.00  0.00    +0.005 A 
ENDROOT
BRANCH   1   8
ATOM      8  C   UNL     1      18.556 -32.560 -20.031  0.00  0.00    +0.087 C 
BRANCH   8   9
ATOM      9  C   UNL     1      17.564 -33.262 -19.105  0.00  0.00    +0.046 C 
ATOM     10  O   UNL     1      16.633 -33.892 -19.689  0.00  0.00    -0.549 OA
ATOM     11  O   UNL     1      17.823 -33.176 -17.869  0.00  0.00    -0.549 OA
ENDBRANCH   8   9
ENDBRANCH   1   8
TORSDOF 2
ENDMDL
MODEL 5
REMARK VINA RESULT:    -4.495      1.690      2.087
REMARK INTER + INTRA:          -5.175
REMARK INTER:                  -5.027
REMARK INTRA:                  -0.148
REMARK UNBOUND:                -0.155
REMARK  Name = 
REMARK  2 active torsions:
REMARK  status: ('A' for Active; 'I' for Inactive)
REMARK    1  A    between atoms: C_1  and  C_8
REMARK    2  A    between atoms: C_8  and  C_9
REMARK                            x       y       z     vdW  Elec       q    Type
REMARK                         _______ _______ _______ _____ _____    ______ ____
ROOT
ATOM      1  C   UNL     1      19.579 -35.120 -20.485  0.00  0.00    -0.042 A 
ATOM      2  C   UNL     1      19.237 -33.768 -20.622  0.00  0.00    +0.005 A 
ATOM      3  C   UNL     1      19.404 -33.116 -21.844  0.00  0.00    +0.015 A 
ATOM      4  C   UNL     1      19.926 -33.812 -22.933  0.00  0.00    +0.018 A 
ATOM      5 BR   UNL     1      20.151 -32.930 -24.591  0.00  0.00    -0.050 Br
ATOM      6  C   UNL     1      20.290 -35.152 -22.807  0.00  0.00    +0.015 A 
ATOM      7  C   UNL     1      20.121 -35.802 -21.584  0.00  0.00    +0.005 A 
ENDROOT
BRANCH   1   8
ATOM      8  C   UNL     1      19.397 -35.825 -19.164  0.00  0.00    +0.087 C 
BRANCH   8   9
ATOM      9  C   UNL     1      20.436 -35.392 -18.132  0.00  0.00    +0.046 C 
ATOM     10  O   UNL     1      21.618 -35.787 -18.358  0.00  0.00    -0.549 OA
ATOM     11  O   UNL     1      20.002 -34.647 -17.207  0.00  0.00    -0.549 OA
ENDBRANCH   8   9
ENDBRANCH   1   8
TORSDOF 2
ENDMDL
MODEL 6
REMARK VINA RESULT:    -4.337      4.943      6.234
REMARK INTER + INTRA:          -4.998
REMARK INTER:                  -4.860
REMARK INTRA:                  -0.139
REMARK UNBOUND:                -0.155
REMARK  Name = 
REMARK  2 active torsions:
REMARK  status: ('A' for Active; 'I' for Inactive)
REMARK    1  A    between atoms: C_1  and  C_8
REMARK    2  A    between atoms: C_8  and  C_9
REMARK                            x       y       z     vdW  Elec       q    Type
REMARK                         _______ _______ _______ _____ _____    ______ ____
ROOT
ATOM      1  C   UNL     1      21.141 -35.029 -24.678  0.00  0.00    -0.042 A 
ATOM      2  C   UNL     1      20.483 -33.795 -24.763  0.00  0.00    +0.005 A 
ATOM      3  C   UNL     1      19.869 -33.242 -23.639  0.00  0.00    +0.015 A 
ATOM      4  C   UNL     1      19.902 -33.928 -22.426  0.00  0.00    +0.018 A 
ATOM      5 BR   UNL     1      19.072 -33.178 -20.900  0.00  0.00    -0.050 Br
ATOM      6  C   UNL     1      20.535 -35.166 -22.330  0.00  0.00    +0.015 A 
ATOM      7  C   UNL     1      21.149 -35.716 -23.456  0.00  0.00    +0.005 A 
ENDROOT
BRANCH   1   8
ATOM      8  C   UNL     1      21.807 -35.626 -25.893  0.00  0.00    +0.087 C 
BRANCH   8   9
ATOM      9  C   UNL     1      21.245 -37.003 -26.239  0.00  0.00    +0.046 C 
ATOM     10  O   UNL     1      22.088 -37.947 -26.236  0.00  0.00    -0.549 OA
ATOM     11  O   UNL     1      19.995 -37.045 -26.433  0.00  0.00    -0.549 OA
ENDBRANCH   8   9
ENDBRANCH   1   8
TORSDOF 2
ENDMDL
MODEL 7
REMARK VINA RESULT:    -4.089      4.269      5.392
REMARK INTER + INTRA:          -4.721
REMARK INTER:                  -4.566
REMARK INTRA:                  -0.156
REMARK UNBOUND:                -0.155
REMARK  Name = 
REMARK  2 active torsions:
REMARK  status: ('A' for Active; 'I' for Inactive)
REMARK    1  A    between atoms: C_1  and  C_8
REMARK    2  A    between atoms: C_8  and  C_9
REMARK                            x       y       z     vdW  Elec       q    Type
REMARK                         _______ _______ _______ _____ _____    ______ ____
ROOT
ATOM      1  C   UNL     1      20.078 -34.763 -22.958  0.00  0.00    -0.042 A 
ATOM      2  C   UNL     1      19.477 -33.540 -22.634  0.00  0.00    +0.005 A 
ATOM      3  C   UNL     1      19.267 -33.186 -21.300  0.00  0.00    +0.015 A 
ATOM      4  C   UNL     1      19.651 -34.061 -20.285  0.00  0.00    +0.018 A 
ATOM      5 BR   UNL     1      19.370 -33.581 -18.477  0.00  0.00    -0.050 Br
ATOM      6  C   UNL     1      20.232 -35.290 -20.593  0.00  0.00    +0.015 A 
ATOM      7  C   UNL     1      20.440 -35.641 -21.927  0.00  0.00    +0.005 A 
ENDROOT
BRANCH   1   8
ATOM      8  C   UNL     1      20.306 -35.145 -24.400  0.00  0.00    +0.087 C 
BRANCH   8   9
ATOM      9  C   UNL     1      21.780 -35.413 -24.698  0.00  0.00    +0.046 C 
ATOM     10  O   UNL     1      22.542 -34.405 -24.607  0.00  0.00    -0.549 OA
ATOM     11  O   UNL     1      22.072 -36.619 -24.946  0.00  0.00    -0.549 OA
ENDBRANCH   8   9
ENDBRANCH   1   8
TORSDOF 2
ENDMDL
MODEL 8
REMARK VINA RESULT:    -3.917      4.287      5.116
REMARK INTER + INTRA:          -4.529
REMARK INTER:                  -4.534
REMARK INTRA:                   0.005
REMARK UNBOUND:                -0.155
REMARK  Name = 
REMARK  2 active torsions:
REMARK  status: ('A' for Active; 'I' for Inactive)
REMARK    1  A    between atoms: C_1  and  C_8
REMARK    2  A    between atoms: C_8  and  C_9
REMARK                            x       y       z     vdW  Elec       q    Type
REMARK                         _______ _______ _______ _____ _____    ______ ____
ROOT
ATOM      1  C   UNL     1      20.543 -34.344 -23.527  0.00  0.00    -0.042 A 
ATOM      2  C   UNL     1      20.612 -35.541 -22.801  0.00  0.00    +0.005 A 
ATOM      3  C   UNL     1      21.614 -36.474 -23.069  0.00  0.00    +0.015 A 
ATOM      4  C   UNL     1      22.546 -36.218 -24.074  0.00  0.00    +0.018 A 
ATOM      5 BR   UNL     1      23.906 -37.482 -24.436  0.00  0.00    -0.050 Br
ATOM      6  C   UNL     1      22.478 -35.042 -24.818  0.00  0.00    +0.015 A 
ATOM      7  C   UNL     1      21.475 -34.110 -24.547  0.00  0.00    +0.005 A 
ENDROOT
BRANCH   1   8
ATOM      8  C   UNL     1      19.461 -33.335 -23.236  0.00  0.00    +0.087 C 
BRANCH   8   9
ATOM      9  C   UNL     1      18.609 -33.033 -24.467  0.00  0.00    +0.046 C 
ATOM     10  O   UNL     1      17.543 -33.709 -24.566  0.00  0.00    -0.549 OA
ATOM     11  O   UNL     1      19.043 -32.106 -25.212  0.00  0.00    -0.549 OA
ENDBRANCH   8   9
ENDBRANCH   1   8
TORSDOF 2
ENDMDL
MODEL 9
REMARK VINA RESULT:    -3.842      3.485      4.516
REMARK INTER + INTRA:          -4.446
REMARK INTER:                  -4.291
REMARK INTRA:                  -0.155
REMARK UNBOUND:                -0.155
REMARK  Name = 
REMARK  2 active torsions:
REMARK  status: ('A' for Active; 'I' for Inactive)
REMARK    1  A    between atoms: C_1  and  C_8
REMARK    2  A    between atoms: C_8  and  C_9
REMARK                            x       y       z     vdW  Elec       q    Type
REMARK                         _______ _______ _______ _____ _____    ______ ____
ROOT
ATOM      1  C   UNL     1      21.518 -36.146 -21.757  0.00  0.00    -0.042 A 
ATOM      2  C   UNL     1      20.408 -35.366 -21.406  0.00  0.00    +0.005 A 
ATOM      3  C   UNL     1      19.921 -34.394 -22.281  0.00  0.00    +0.015 A 
ATOM      4  C   UNL     1      20.550 -34.191 -23.508  0.00  0.00    +0.018 A 
ATOM      5 BR   UNL     1      19.889 -32.875 -24.695  0.00  0.00    -0.050 Br
ATOM      6  C   UNL     1      21.668 -34.944 -23.863  0.00  0.00    +0.015 A 
ATOM      7  C   UNL     1      22.152 -35.916 -22.986  0.00  0.00    +0.005 A 
ENDROOT
BRANCH   1   8
ATOM      8  C   UNL     1      22.044 -37.198 -20.813  0.00  0.00    +0.087 C 
BRANCH   8   9
ATOM      9  C   UNL     1      23.469 -36.898 -20.354  0.00  0.00    +0.046 C 
ATOM     10  O   UNL     1      23.584 -35.932 -19.542  0.00  0.00    -0.549 OA
ATOM     11  O   UNL     1      24.358 -37.683 -20.796  0.00  0.00    -0.549 OA
ENDBRANCH   8   9
ENDBRANCH   1   8
TORSDOF 2
ENDMDL
