MODEL 1
REMARK VINA RESULT:    -5.643      0.000      0.000
REMARK INTER + INTRA:          -7.192
REMARK INTER:                  -7.101
REMARK INTRA:                  -0.091
REMARK UNBOUND:                -0.559
REMARK  Name = 
REMARK  3 active torsions:
REMARK  status: ('A' for Active; 'I' for Inactive)
REMARK    1  A    between atoms: C_1  and  C_7
REMARK    2  A    between atoms: C_7  and  C_8
REMARK    3  A    between atoms: C_7  and  C_9
REMARK                            x       y       z     vdW  Elec       q    Type
REMARK                         _______ _______ _______ _____ _____    ______ ____
ROOT
ATOM      1  C   UNL     1      20.022 -33.317 -23.923  0.00  0.00    +0.113 C 
ENDROOT
BRANCH   1   2
ATOM      2  C   UNL     1      20.779 -34.232 -24.909  0.00  0.00    +0.076 C 
ATOM      3  N   UNL     1      20.070 -35.547 -25.083  0.00  0.00    +0.230 N 
ATOM      4  H   UNL     1      19.079 -35.245 -25.313  0.00  0.00    +0.202 HD
ATOM      5  H   UNL     1      19.972 -36.020 -24.179  0.00  0.00    +0.202 HD
ATOM      6  C   UNL     1      20.585 -36.411 -26.155  0.00  0.00    +0.129 C 
ATOM      7  C   UNL     1      22.103 -36.529 -26.066  0.00  0.00    +0.051 C 
ATOM      8  C   UNL     1      22.678 -35.968 -24.770  0.00  0.00    +0.011 C 
ATOM      9  C   UNL     1      22.248 -34.516 -24.542  0.00  0.00    +0.055 C 
ENDBRANCH   1   2
BRANCH   1  10
ATOM     10  C   UNL     1      19.872 -33.857 -22.509  0.00  0.00    -0.033 A 
ATOM     11  C   UNL     1      20.188 -35.177 -22.154  0.00  0.00    +0.004 A 
ATOM     12  C   UNL     1      20.066 -35.616 -20.833  0.00  0.00    +0.000 A 
ATOM     13  C   UNL     1      19.618 -34.745 -19.844  0.00  0.00    +0.000 A 
ATOM     14  C   UNL     1      19.279 -33.438 -20.177  0.00  0.00    +0.000 A 
ATOM     15  C   UNL     1      19.398 -33.002 -21.499  0.00  0.00    +0.004 A 
ENDBRANCH   1  10
BRANCH   1  16
ATOM     16  C   UNL     1      18.688 -33.046 -24.638  0.00  0.00    +0.054 C 
ATOM     17  O   UNL     1      17.773 -33.878 -24.436  0.00  0.00    -0.549 OA
ATOM     18  O   UNL     1      18.661 -31.943 -25.284  0.00  0.00    -0.549 OA
ENDBRANCH   1  16
TORSDOF 3
ENDMDL
MODEL 2
REMARK VINA RESULT:    -5.466      1.310      4.537
REMARK INTER + INTRA:          -6.984
REMARK INTER:                  -6.645
REMARK INTRA:                  -0.340
REMARK UNBOUND:                -0.559
REMARK  Name = 
REMARK  3 active torsions:
REMARK  status: ('A' for Active; 'I' for Inactive)
REMARK    1  A    between atoms: C_1  and  C_7
REMARK    2  A    between atoms: C_7  and  C_8
REMARK    3  A    between atoms: C_7  and  C_9
REMARK                            x       y       z     vdW  Elec       q    Type
REMARK                         _______ _______ _______ _____ _____    ______ ____
ROOT
ATOM      1  C   UNL     1      19.610 -34.455 -24.386  0.00  0.00    +0.113 C 
ENDROOT
BRANCH   1   2
ATOM      2  C   UNL     1      19.370 -34.681 -22.876  0.00  0.00    +0.076 C 
ATOM      3  N   UNL     1      19.673 -33.437 -22.087  0.00  0.00    +0.230 N 
ATOM      4  H   UNL     1      19.107 -32.698 -22.596  0.00  0.00    +0.202 HD
ATOM      5  H   UNL     1      20.643 -33.144 -22.243  0.00  0.00    +0.202 HD
ATOM      6  C   UNL     1      19.281 -33.471 -20.670  0.00  0.00    +0.129 C 
ATOM      7  C   UNL     1      19.762 -34.760 -20.011  0.00  0.00    +0.051 C 
ATOM      8  C   UNL     1      20.738 -35.552 -20.874  0.00  0.00    +0.011 C 
ATOM      9  C   UNL     1      20.155 -35.853 -22.258  0.00  0.00    +0.055 C 
ENDBRANCH   1   2
BRANCH   1  10
ATOM     10  C   UNL     1      20.954 -34.931 -24.915  0.00  0.00    -0.033 A 
ATOM     11  C   UNL     1      22.182 -34.456 -24.431  0.00  0.00    +0.004 A 
ATOM     12  C   UNL     1      23.391 -34.951 -24.927  0.00  0.00    +0.000 A 
ATOM     13  C   UNL     1      23.394 -35.924 -25.923  0.00  0.00    +0.000 A 
ATOM     14  C   UNL     1      22.188 -36.394 -26.431  0.00  0.00    +0.000 A 
ATOM     15  C   UNL     1      20.980 -35.896 -25.937  0.00  0.00    +0.004 A 
ENDBRANCH   1  10
BRANCH   1  16
ATOM     16  C   UNL     1      19.359 -32.948 -24.565  0.00  0.00    +0.054 C 
ATOM     17  O   UNL     1      18.159 -32.590 -24.618  0.00  0.00    -0.549 OA
ATOM     18  O   UNL     1      20.423 -32.240 -24.548  0.00  0.00    -0.549 OA
ENDBRANCH   1  16
TORSDOF 3
ENDMDL
MODEL 3
REMARK VINA RESULT:    -5.366      1.353      1.866
REMARK INTER + INTRA:          -6.866
REMARK INTER:                  -6.776
REMARK INTRA:                  -0.090
REMARK UNBOUND:                -0.559
REMARK  Name = 
REMARK  3 active torsions:
REMARK  status: ('A' for Active; 'I' for Inactive)
REMARK    1  A    between atoms: C_1  and  C_7
REMARK    2  A    between atoms: C_7  and  C_8
REMARK    3  A    between atoms: C_7  and  C_9
REMARK                            x       y       z     vdW  Elec       q    Type
REMARK                         _______ _______ _______ _____ _____    ______ ____
ROOT
ATOM      1  C   UNL     1      20.471 -34.414 -23.421  0.00  0.00    +0.113 C 
ENDROOT
BRANCH   1   2
ATOM      2  C   UNL     1      20.500 -35.834 -24.028  0.00  0.00    +0.076 C 
ATOM      3  N   UNL     1      20.128 -35.810 -25.485  0.00  0.00    +0.230 N 
ATOM      4  H   UNL     1      20.776 -35.066 -25.875  0.00  0.00    +0.202 HD
ATOM      5  H   UNL     1      19.195 -35.401 -25.607  0.00  0.00    +0.202 HD
ATOM      6  C   UNL     1      20.326 -37.071 -26.214  0.00  0.00    +0.129 C 
ATOM      7  C   UNL     1      19.726 -38.239 -25.437  0.00  0.00    +0.051 C 
ATOM      8  C   UNL     1      18.854 -37.802 -24.266  0.00  0.00    +0.011 C 
ATOM      9  C   UNL     1      19.609 -36.868 -23.315  0.00  0.00    +0.055 C 
ENDBRANCH   1   2
BRANCH   1  10
ATOM     10  C   UNL     1      20.114 -34.338 -21.944  0.00  0.00    -0.033 A 
ATOM     11  C   UNL     1      20.506 -35.309 -21.010  0.00  0.00    +0.004 A 
ATOM     12  C   UNL     1      20.182 -35.176 -19.656  0.00  0.00    +0.000 A 
ATOM     13  C   UNL     1      19.455 -34.074 -19.215  0.00  0.00    +0.000 A 
ATOM     14  C   UNL     1      19.039 -33.111 -20.128  0.00  0.00    +0.000 A 
ATOM     15  C   UNL     1      19.360 -33.247 -21.480  0.00  0.00    +0.004 A 
ENDBRANCH   1  10
BRANCH   1  16
ATOM     16  C   UNL     1      19.505 -33.652 -24.343  0.00  0.00    +0.054 C 
ATOM     17  O   UNL     1      18.308 -34.022 -24.317  0.00  0.00    -0.549 OA
ATOM     18  O   UNL     1      20.041 -32.667 -24.956  0.00  0.00    -0.549 OA
ENDBRANCH   1  16
TORSDOF 3
ENDMDL
MODEL 4
REMARK VINA RESULT:    -5.271      2.717      5.592
REMARK INTER + INTRA:          -6.755
REMARK INTER:                  -6.554
REMARK INTRA:                  -0.201
REMARK UNBOUND:                -0.559
REMARK  Name = 
REMARK  3 active torsions:
REMARK  status: ('A' for Active; 'I' for Inactive)
REMARK    1  A    between atoms: C_1  and  C_7
REMARK    2  A    between atoms: C_7  and  C_8
REMARK    3  A    between atoms: C_7  and  C_9
REMARK                            x       y       z     vdW  Elec       q    Type
REMARK                         _______ _______ _______ _____ _____    ______ ____
ROOT
ATOM      1  C   UNL     1      20.400 -35.208 -21.294  0.00  0.00    +0.113 C 
ENDROOT
BRANCH   1   2
ATOM      2  C   UNL     1      19.736 -34.655 -20.013  0.00  0.00    +0.076 C 
ATOM      3  N   UNL     1      18.450 -35.376 -19.714  0.00  0.00    +0.230 N 
ATOM      4  H   UNL     1      18.745 -36.395 -19.747  0.00  0.00    +0.202 HD
ATOM      5  H   UNL     1      17.803 -35.289 -20.503  0.00  0.00    +0.202 HD
ATOM      6  C   UNL     1      17.843 -35.079 -18.408  0.00  0.00    +0.129 C 
ATOM      7  C   UNL     1      17.782 -33.572 -18.176  0.00  0.00    +0.051 C 
ATOM      8  C   UNL     1      18.100 -32.755 -19.423  0.00  0.00    +0.011 C 
ATOM      9  C   UNL     1      19.455 -33.141 -20.023  0.00  0.00    +0.055 C 
ENDBRANCH   1   2
BRANCH   1  10
ATOM     10  C   UNL     1      20.113 -34.430 -22.569  0.00  0.00    -0.033 A 
ATOM     11  C   UNL     1      18.926 -33.711 -22.779  0.00  0.00    +0.004 A 
ATOM     12  C   UNL     1      18.725 -32.983 -23.956  0.00  0.00    +0.000 A 
ATOM     13  C   UNL     1      19.703 -32.968 -24.946  0.00  0.00    +0.000 A 
ATOM     14  C   UNL     1      20.878 -33.690 -24.767  0.00  0.00    +0.000 A 
ATOM     15  C   UNL     1      21.077 -34.420 -23.593  0.00  0.00    +0.004 A 
ENDBRANCH   1  10
BRANCH   1  16
ATOM     16  C   UNL     1      19.938 -36.674 -21.332  0.00  0.00    +0.054 C 
ATOM     17  O   UNL     1      19.262 -37.015 -22.331  0.00  0.00    -0.549 OA
ATOM     18  O   UNL     1      20.386 -37.384 -20.368  0.00  0.00    -0.549 OA
ENDBRANCH   1  16
TORSDOF 3
ENDMDL
MODEL 5
REMARK VINA RESULT:    -5.222      2.790      3.997
REMARK INTER + INTRA:          -6.696
REMARK INTER:                  -6.079
REMARK INTRA:                  -0.617
REMARK UNBOUND:                -0.559
REMARK  Name = 
REMARK  3 active torsions:
REMARK  status: ('A' for Active; 'I' for Inactive)
REMARK    1  A    between atoms: C_1  and  C_7
REMARK    2  A    between atoms: C_7  and  C_8
REMARK    3  A    between atoms: C_7  and  C_9
REMARK                            x       y       z     vdW  Elec       q    Type
REMARK                         _______ _______ _______ _____ _____    ______ ____
ROOT
ATOM      1  C   UNL     1      22.186 -36.175 -24.544  0.00  0.00    +0.113 C 
ENDROOT
BRANCH   1   2
ATOM      2  C   UNL     1      21.516 -37.486 -25.010  0.00  0.00    +0.076 C 
ATOM      3  N   UNL     1      20.266 -37.207 -25.799  0.00  0.00    +0.230 N 
ATOM      4  H   UNL     1      20.604 -36.511 -26.526  0.00  0.00    +0.202 HD
ATOM      5  H   UNL     1      19.605 -36.662 -25.237  0.00  0.00    +0.202 HD
ATOM      6  C   UNL     1      19.664 -38.368 -26.470  0.00  0.00    +0.129 C 
ATOM      7  C   UNL     1      19.540 -39.541 -25.502  0.00  0.00    +0.051 C 
ATOM      8  C   UNL     1      19.806 -39.158 -24.051  0.00  0.00    +0.011 C 
ATOM      9  C   UNL     1      21.169 -38.479 -23.885  0.00  0.00    +0.055 C 
ENDBRANCH   1   2
BRANCH   1  10
ATOM     10  C   UNL     1      21.235 -35.076 -24.094  0.00  0.00    -0.033 A 
ATOM     11  C   UNL     1      20.923 -33.959 -24.884  0.00  0.00    +0.004 A 
ATOM     12  C   UNL     1      20.016 -32.993 -24.439  0.00  0.00    +0.000 A 
ATOM     13  C   UNL     1      19.409 -33.124 -23.193  0.00  0.00    +0.000 A 
ATOM     14  C   UNL     1      19.719 -34.213 -22.385  0.00  0.00    +0.000 A 
ATOM     15  C   UNL     1      20.629 -35.175 -22.829  0.00  0.00    +0.004 A 
ENDBRANCH   1  10
BRANCH   1  16
ATOM     16  C   UNL     1      23.079 -35.787 -25.734  0.00  0.00    +0.054 C 
ATOM     17  O   UNL     1      24.110 -35.130 -25.460  0.00  0.00    -0.549 OA
ATOM     18  O   UNL     1      22.691 -36.271 -26.852  0.00  0.00    -0.549 OA
ENDBRANCH   1  16
TORSDOF 3
ENDMDL
MODEL 6
REMARK VINA RESULT:    -5.203      4.430      5.932
REMARK INTER + INTRA:          -6.674
REMARK INTER:                  -6.185
REMARK INTRA:                  -0.489
REMARK UNBOUND:                -0.559
REMARK  Name = 
REMARK  3 active torsions:
REMARK  status: ('A' for Active; 'I' for Inactive)
REMARK    1  A    between atoms: C_1  and  C_7
REMARK    2  A    between atoms: C_7  and  C_8
REMARK    3  A    between atoms: C_7  and  C_9
REMARK                            x       y       z     vdW  Elec       q    Type
REMARK                         _______ _______ _______ _____ _____    ______ ____
ROOT
ATOM      1  C   UNL     1      20.291 -36.434 -18.785  0.00  0.00    +0.113 C 
ENDROOT
BRANCH   1   2
ATOM      2  C   UNL     1      21.780 -36.842 -18.738  0.00  0.00    +0.076 C 
ATOM      3  N   UNL     1      22.673 -35.632 -18.698  0.00  0.00    +0.230 N 
ATOM      4  H   UNL     1      22.264 -35.071 -17.895  0.00  0.00    +0.202 HD
ATOM      5  H   UNL     1      22.503 -35.038 -19.515  0.00  0.00    +0.202 HD
ATOM      6  C   UNL     1      24.096 -35.899 -18.440  0.00  0.00    +0.129 C 
ATOM      7  C   UNL     1      24.603 -37.019 -19.344  0.00  0.00    +0.051 C 
ATOM      8  C   UNL     1      23.624 -37.392 -20.451  0.00  0.00    +0.011 C 
ATOM      9  C   UNL     1      22.245 -37.752 -19.890  0.00  0.00    +0.055 C 
ENDBRANCH   1   2
BRANCH   1  10
ATOM     10  C   UNL     1      19.967 -35.233 -19.660  0.00  0.00    -0.033 A 
ATOM     11  C   UNL     1      20.004 -35.272 -21.062  0.00  0.00    +0.004 A 
ATOM     12  C   UNL     1      19.664 -34.149 -21.822  0.00  0.00    +0.000 A 
ATOM     13  C   UNL     1      19.287 -32.965 -21.193  0.00  0.00    +0.000 A 
ATOM     14  C   UNL     1      19.263 -32.899 -19.805  0.00  0.00    +0.000 A 
ATOM     15  C   UNL     1      19.607 -34.020 -19.046  0.00  0.00    +0.004 A 
ENDBRANCH   1  10
BRANCH   1  16
ATOM     16  C   UNL     1      19.924 -36.252 -17.303  0.00  0.00    +0.054 C 
ATOM     17  O   UNL     1      20.870 -35.974 -16.529  0.00  0.00    -0.549 OA
ATOM     18  O   UNL     1      18.670 -36.322 -17.067  0.00  0.00    -0.549 OA
ENDBRANCH   1  16
TORSDOF 3
ENDMDL
MODEL 7
REMARK VINA RESULT:    -4.889      2.587      5.144
REMARK INTER + INTRA:          -6.306
REMARK INTER:                  -6.650
REMARK INTRA:                   0.344
REMARK UNBOUND:                -0.559
REMARK  Name = 
REMARK  3 active torsions:
REMARK  status: ('A' for Active; 'I' for Inactive)
REMARK    1  A    between atoms: C_1  and  C_7
REMARK    2  A    between atoms: C_7  and  C_8
REMARK    3  A    between atoms: C_7  and  C_9
REMARK                            x       y       z     vdW  Elec       q    Type
REMARK                         _______ _______ _______ _____ _____    ______ ____
ROOT
ATOM      1  C   UNL     1      19.325 -34.675 -20.926  0.00  0.00    +0.113 C 
ENDROOT
BRANCH   1   2
ATOM      2  C   UNL     1      20.386 -35.142 -19.906  0.00  0.00    +0.076 C 
ATOM      3  N   UNL     1      20.639 -36.620 -20.023  0.00  0.00    +0.230 N 
ATOM      4  H   UNL     1      20.830 -36.739 -21.060  0.00  0.00    +0.202 HD
ATOM      5  H   UNL     1      19.768 -37.141 -19.879  0.00  0.00    +0.202 HD
ATOM      6  C   UNL     1      21.778 -37.134 -19.249  0.00  0.00    +0.129 C 
ATOM      7  C   UNL     1      21.724 -36.623 -17.812  0.00  0.00    +0.051 C 
ATOM      8  C   UNL     1      20.402 -35.950 -17.460  0.00  0.00    +0.011 C 
ATOM      9  C   UNL     1      20.066 -34.818 -18.435  0.00  0.00    +0.055 C 
ENDBRANCH   1   2
BRANCH   1  10
ATOM     10  C   UNL     1      19.847 -34.363 -22.320  0.00  0.00    -0.033 A 
ATOM     11  C   UNL     1      20.961 -35.005 -22.884  0.00  0.00    +0.004 A 
ATOM     12  C   UNL     1      21.381 -34.707 -24.184  0.00  0.00    +0.000 A 
ATOM     13  C   UNL     1      20.701 -33.756 -24.940  0.00  0.00    +0.000 A 
ATOM     14  C   UNL     1      19.607 -33.094 -24.393  0.00  0.00    +0.000 A 
ATOM     15  C   UNL     1      19.190 -33.389 -23.093  0.00  0.00    +0.004 A 
ENDBRANCH   1  10
BRANCH   1  16
ATOM     16  C   UNL     1      18.653 -33.484 -20.224  0.00  0.00    +0.054 C 
ATOM     17  O   UNL     1      19.348 -32.447 -20.108  0.00  0.00    -0.549 OA
ATOM     18  O   UNL     1      17.426 -33.682 -19.926  0.00  0.00    -0.549 OA
ENDBRANCH   1  16
TORSDOF 3
ENDMDL
MODEL 8
REMARK VINA RESULT:    -4.841      2.661      3.293
REMARK INTER + INTRA:          -6.249
REMARK INTER:                  -5.654
REMARK INTRA:                  -0.595
REMARK UNBOUND:                -0.559
REMARK  Name = 
REMARK  3 active torsions:
REMARK  status: ('A' for Active; 'I' for Inactive)
REMARK    1  A    between atoms: C_1  and  C_7
REMARK    2  A    between atoms: C_7  and  C_8
REMARK    3  A    between atoms: C_7  and  C_9
REMARK                            x       y       z     vdW  Elec       q    Type
REMARK                         _______ _______ _______ _____ _____    ______ ____
ROOT
ATOM      1  C   UNL     1      21.564 -36.012 -23.348  0.00  0.00    +0.113 C 
ENDROOT
BRANCH   1   2
ATOM      2  C   UNL     1      20.919 -37.318 -23.863  0.00  0.00    +0.076 C 
ATOM      3  N   UNL     1      19.419 -37.214 -23.877  0.00  0.00    +0.230 N 
ATOM      4  H   UNL     1      19.256 -36.311 -24.409  0.00  0.00    +0.202 HD
ATOM      5  H   UNL     1      19.069 -37.004 -22.936  0.00  0.00    +0.202 HD
ATOM      6  C   UNL     1      18.711 -38.316 -24.545  0.00  0.00    +0.129 C 
ATOM      7  C   UNL     1      19.238 -39.663 -24.061  0.00  0.00    +0.051 C 
ATOM      8  C   UNL     1      20.148 -39.554 -22.843  0.00  0.00    +0.011 C 
ATOM      9  C   UNL     1      21.312 -38.591 -23.090  0.00  0.00    +0.055 C 
ENDBRANCH   1   2
BRANCH   1  10
ATOM     10  C   UNL     1      20.744 -35.233 -22.331  0.00  0.00    -0.033 A 
ATOM     11  C   UNL     1      20.655 -35.593 -20.978  0.00  0.00    +0.004 A 
ATOM     12  C   UNL     1      19.915 -34.823 -20.076  0.00  0.00    +0.000 A 
ATOM     13  C   UNL     1      19.244 -33.684 -20.512  0.00  0.00    +0.000 A 
ATOM     14  C   UNL     1      19.303 -33.320 -21.853  0.00  0.00    +0.000 A 
ATOM     15  C   UNL     1      20.039 -34.092 -22.754  0.00  0.00    +0.004 A 
ENDBRANCH   1  10
BRANCH   1  16
ATOM     16  C   UNL     1      21.875 -35.234 -24.637  0.00  0.00    +0.054 C 
ATOM     17  O   UNL     1      22.842 -34.438 -24.582  0.00  0.00    -0.549 OA
ATOM     18  O   UNL     1      21.151 -35.573 -25.634  0.00  0.00    -0.549 OA
ENDBRANCH   1  16
TORSDOF 3
ENDMDL
MODEL 9
REMARK VINA RESULT:    -4.772      2.746      3.538
REMARK INTER + INTRA:          -6.168
REMARK INTER:                  -5.609
REMARK INTRA:                  -0.559
REMARK UNBOUND:                -0.559
REMARK  Name = 
REMARK  3 active torsions:
REMARK  status: ('A' for Active; 'I' for Inactive)
REMARK    1  A    between atoms: C_1  and  C_7
REMARK    2  A    between atoms: C_7  and  C_8
REMARK    3  A    between atoms: C_7  and  C_9
REMARK                            x       y       z     vdW  Elec       q    Type
REMARK                         _______ _______ _______ _____ _____    ______ ____
ROOT
ATOM      1  C   UNL     1      19.304 -36.191 -21.987  0.00  0.00    +0.113 C 
ENDROOT
BRANCH   1   2
ATOM      2  C   UNL     1      20.284 -35.985 -23.163  0.00  0.00    +0.076 C 
ATOM      3  N   UNL     1      21.650 -35.594 -22.668  0.00  0.00    +0.230 N 
ATOM      4  H   UNL     1      21.856 -36.345 -21.947  0.00  0.00    +0.202 HD
ATOM      5  H   UNL     1      21.594 -34.736 -22.110  0.00  0.00    +0.202 HD
ATOM      6  C   UNL     1      22.714 -35.578 -23.683  0.00  0.00    +0.129 C 
ATOM      7  C   UNL     1      22.259 -34.816 -24.924  0.00  0.00    +0.051 C 
ATOM      8  C   UNL     1      20.960 -34.045 -24.717  0.00  0.00    +0.011 C 
ATOM      9  C   UNL     1      19.835 -34.955 -24.216  0.00  0.00    +0.055 C 
ENDBRANCH   1   2
BRANCH   1  10
ATOM     10  C   UNL     1      19.433 -35.197 -20.842  0.00  0.00    -0.033 A 
ATOM     11  C   UNL     1      19.943 -35.541 -19.581  0.00  0.00    +0.004 A 
ATOM     12  C   UNL     1      20.074 -34.582 -18.572  0.00  0.00    +0.000 A 
ATOM     13  C   UNL     1      19.691 -33.264 -18.805  0.00  0.00    +0.000 A 
ATOM     14  C   UNL     1      19.164 -32.906 -20.041  0.00  0.00    +0.000 A 
ATOM     15  C   UNL     1      19.030 -33.866 -21.047  0.00  0.00    +0.004 A 
ENDBRANCH   1  10
BRANCH   1  16
ATOM     16  C   UNL     1      19.537 -37.655 -21.580  0.00  0.00    +0.054 C 
ATOM     17  O   UNL     1      20.713 -38.075 -21.677  0.00  0.00    -0.549 OA
ATOM     18  O   UNL     1      18.500 -38.232 -21.104  0.00  0.00    -0.549 OA
ENDBRANCH   1  16
TORSDOF 3
ENDMDL
