
  MJ192500                      

 16 17  0  0  0  0  0  0  0  0999 V2000
   -2.8571   -0.7374    0.0000 C   0  0  0  0  0  0  0  0  0  0  0  0
   -3.5715   -1.1499    0.0000 C   0  0  0  0  0  0  0  0  0  0  0  0
   -3.5715   -1.9750    0.0000 C   0  0  0  0  0  0  0  0  0  0  0  0
   -2.8571   -2.3875    0.0000 C   0  0  0  0  0  0  0  0  0  0  0  0
   -2.1426   -1.9750    0.0000 C   0  0  0  0  0  0  0  0  0  0  0  0
   -2.1426   -1.1499    0.0000 C   0  0  0  0  0  0  0  0  0  0  0  0
   -2.8572    0.0875    0.0000 C   0  0  0  0  0  0  0  0  0  0  0  0
   -3.6108    0.4231    0.0000 C   0  0  0  0  0  0  0  0  0  0  0  0
   -2.1427    0.5000    0.0000 C   0  0  0  0  0  0  0  0  0  0  0  0
   -2.1427    1.3250    0.0000 O   0  0  0  0  0  0  0  0  0  0  0  0
   -1.3890    0.1644    0.0000 O   0  0  0  0  0  0  0  0  0  0  0  0
   -3.6108    1.2481    0.0000 C   0  0  0  0  0  0  0  0  0  0  0  0
   -4.3254    1.6606    0.0000 C   0  0  0  0  0  0  0  0  0  0  0  0
   -5.0398    1.2481    0.0000 C   0  0  0  0  0  0  0  0  0  0  0  0
   -5.0399    0.4231    0.0000 C   0  0  0  0  0  0  0  0  0  0  0  0
   -4.3253    0.0105    0.0000 N   0  0  0  0  0  0  0  0  0  0  0  0
  1  2  2  0  0  0  0
  2  3  1  0  0  0  0
  3  4  2  0  0  0  0
  4  5  1  0  0  0  0
  5  6  2  0  0  0  0
  6  1  1  0  0  0  0
  1  7  1  0  0  0  0
  7  8  1  0  0  0  0
  7  9  1  0  0  0  0
 12 13  1  0  0  0  0
 13 14  1  0  0  0  0
 14 15  1  0  0  0  0
  8 12  1  0  0  0  0
 15 16  1  0  0  0  0
  8 16  1  0  0  0  0
  9 11  1  0  0  0  0
  9 10  2  0  0  0  0
M  END
