MODEL 1
REMARK VINA RESULT:    -4.861      0.000      0.000
REMARK INTER + INTRA:          -5.448
REMARK INTER:                  -5.540
REMARK INTRA:                   0.092
REMARK UNBOUND:                -0.019
REMARK  Name = 
REMARK  2 active torsions:
REMARK  status: ('A' for Active; 'I' for Inactive)
REMARK    1  A    between atoms: C_1  and  C_2
REMARK    2  A    between atoms: C_2  and  C_3
REMARK                            x       y       z     vdW  Elec       q    Type
REMARK                         _______ _______ _______ _____ _____    ______ ____
ROOT
ATOM      1  C   UNL     1       8.460 -26.964 -25.008  0.00  0.00    +0.395 C 
ATOM      2  F   UNL     1       9.523 -27.750 -24.640  0.00  0.00    -0.170 F 
ATOM      3  F   UNL     1       8.257 -26.135 -23.964  0.00  0.00    -0.170 F 
ATOM      4  F   UNL     1       7.412 -27.809 -25.095  0.00  0.00    -0.170 F 
ENDROOT
BRANCH   1   5
ATOM      5  C   UNL     1       8.823 -26.287 -26.284  0.00  0.00    +0.165 C 
BRANCH   5   6
ATOM      6  C   UNL     1       8.326 -27.262 -27.303  0.00  0.00    +0.050 C 
ATOM      7  O   UNL     1       9.177 -28.102 -27.707  0.00  0.00    -0.550 OA
ATOM      8  O   UNL     1       7.149 -27.061 -27.712  0.00  0.00    -0.550 OA
ENDBRANCH   5   6
ENDBRANCH   1   5
TORSDOF 2
ENDMDL
MODEL 2
REMARK VINA RESULT:    -4.103      1.834      2.334
REMARK INTER + INTRA:          -4.601
REMARK INTER:                  -4.822
REMARK INTRA:                   0.221
REMARK UNBOUND:                -0.019
REMARK  Name = 
REMARK  2 active torsions:
REMARK  status: ('A' for Active; 'I' for Inactive)
REMARK    1  A    between atoms: C_1  and  C_2
REMARK    2  A    between atoms: C_2  and  C_3
REMARK                            x       y       z     vdW  Elec       q    Type
REMARK                         _______ _______ _______ _____ _____    ______ ____
ROOT
ATOM      1  C   UNL     1       8.942 -27.374 -26.154  0.00  0.00    +0.395 C 
ATOM      2  F   UNL     1      10.111 -26.811 -25.709  0.00  0.00    -0.170 F 
ATOM      3  F   UNL     1       8.987 -28.656 -25.735  0.00  0.00    -0.170 F 
ATOM      4  F   UNL     1       9.035 -27.361 -27.500  0.00  0.00    -0.170 F 
ENDROOT
BRANCH   1   5
ATOM      5  C   UNL     1       7.817 -26.573 -25.598  0.00  0.00    +0.165 C 
BRANCH   5   6
ATOM      6  C   UNL     1       6.632 -27.210 -26.250  0.00  0.00    +0.050 C 
ATOM      7  O   UNL     1       6.009 -28.045 -25.537  0.00  0.00    -0.550 OA
ATOM      8  O   UNL     1       6.460 -26.916 -27.464  0.00  0.00    -0.550 OA
ENDBRANCH   5   6
ENDBRANCH   1   5
TORSDOF 2
ENDMDL
MODEL 3
REMARK VINA RESULT:    -4.012     12.687     13.439
REMARK INTER + INTRA:          -4.499
REMARK INTER:                  -4.489
REMARK INTRA:                  -0.010
REMARK UNBOUND:                -0.019
REMARK  Name = 
REMARK  2 active torsions:
REMARK  status: ('A' for Active; 'I' for Inactive)
REMARK    1  A    between atoms: C_1  and  C_2
REMARK    2  A    between atoms: C_2  and  C_3
REMARK                            x       y       z     vdW  Elec       q    Type
REMARK                         _______ _______ _______ _____ _____    ______ ____
ROOT
ATOM      1  C   UNL     1      19.757 -32.844 -24.675  0.00  0.00    +0.395 C 
ATOM      2  F   UNL     1      18.999 -32.090 -25.535  0.00  0.00    -0.170 F 
ATOM      3  F   UNL     1      20.672 -31.990 -24.172  0.00  0.00    -0.170 F 
ATOM      4  F   UNL     1      20.392 -33.740 -25.459  0.00  0.00    -0.170 F 
ENDROOT
BRANCH   1   5
ATOM      5  C   UNL     1      18.835 -33.439 -23.668  0.00  0.00    +0.165 C 
BRANCH   5   6
ATOM      6  C   UNL     1      19.766 -33.739 -22.537  0.00  0.00    +0.050 C 
ATOM      7  O   UNL     1      20.542 -34.716 -22.721  0.00  0.00    -0.550 OA
ATOM      8  O   UNL     1      19.592 -33.046 -21.497  0.00  0.00    -0.550 OA
ENDBRANCH   5   6
ENDBRANCH   1   5
TORSDOF 2
ENDMDL
MODEL 4
REMARK VINA RESULT:    -3.856     12.960     13.731
REMARK INTER + INTRA:          -4.325
REMARK INTER:                  -4.301
REMARK INTRA:                  -0.025
REMARK UNBOUND:                -0.019
REMARK  Name = 
REMARK  2 active torsions:
REMARK  status: ('A' for Active; 'I' for Inactive)
REMARK    1  A    between atoms: C_1  and  C_2
REMARK    2  A    between atoms: C_2  and  C_3
REMARK                            x       y       z     vdW  Elec       q    Type
REMARK                         _______ _______ _______ _____ _____    ______ ____
ROOT
ATOM      1  C   UNL     1      19.987 -32.933 -24.427  0.00  0.00    +0.395 C 
ATOM      2  F   UNL     1      20.810 -31.836 -24.388  0.00  0.00    -0.170 F 
ATOM      3  F   UNL     1      18.976 -32.585 -25.250  0.00  0.00    -0.170 F 
ATOM      4  F   UNL     1      19.498 -33.050 -23.175  0.00  0.00    -0.170 F 
ENDROOT
BRANCH   1   5
ATOM      5  C   UNL     1      20.802 -34.090 -24.890  0.00  0.00    +0.165 C 
BRANCH   5   6
ATOM      6  C   UNL     1      20.169 -35.227 -24.154  0.00  0.00    +0.050 C 
ATOM      7  O   UNL     1      20.843 -35.687 -23.191  0.00  0.00    -0.550 OA
ATOM      8  O   UNL     1      19.090 -35.656 -24.647  0.00  0.00    -0.550 OA
ENDBRANCH   5   6
ENDBRANCH   1   5
TORSDOF 2
ENDMDL
MODEL 5
REMARK VINA RESULT:    -3.437     13.711     14.274
REMARK INTER + INTRA:          -3.857
REMARK INTER:                  -3.941
REMARK INTRA:                   0.084
REMARK UNBOUND:                -0.019
REMARK  Name = 
REMARK  2 active torsions:
REMARK  status: ('A' for Active; 'I' for Inactive)
REMARK    1  A    between atoms: C_1  and  C_2
REMARK    2  A    between atoms: C_2  and  C_3
REMARK                            x       y       z     vdW  Elec       q    Type
REMARK                         _______ _______ _______ _____ _____    ______ ____
ROOT
ATOM      1  C   UNL     1      19.105 -33.216 -20.096  0.00  0.00    +0.395 C 
ATOM      2  F   UNL     1      18.580 -33.923 -21.148  0.00  0.00    -0.170 F 
ATOM      3  F   UNL     1      19.687 -32.134 -20.654  0.00  0.00    -0.170 F 
ATOM      4  F   UNL     1      20.072 -34.008 -19.587  0.00  0.00    -0.170 F 
ENDROOT
BRANCH   1   5
ATOM      5  C   UNL     1      17.989 -32.913 -19.158  0.00  0.00    +0.165 C 
BRANCH   5   6
ATOM      6  C   UNL     1      18.330 -33.773 -17.984  0.00  0.00    +0.050 C 
ATOM      7  O   UNL     1      17.895 -34.956 -18.038  0.00  0.00    -0.550 OA
ATOM      8  O   UNL     1      18.919 -33.184 -17.036  0.00  0.00    -0.550 OA
ENDBRANCH   5   6
ENDBRANCH   1   5
TORSDOF 2
ENDMDL
MODEL 6
REMARK VINA RESULT:    -3.294     12.903     13.729
REMARK INTER + INTRA:          -3.697
REMARK INTER:                  -3.744
REMARK INTRA:                   0.047
REMARK UNBOUND:                -0.019
REMARK  Name = 
REMARK  2 active torsions:
REMARK  status: ('A' for Active; 'I' for Inactive)
REMARK    1  A    between atoms: C_1  and  C_2
REMARK    2  A    between atoms: C_2  and  C_3
REMARK                            x       y       z     vdW  Elec       q    Type
REMARK                         _______ _______ _______ _____ _____    ______ ____
ROOT
ATOM      1  C   UNL     1      20.641 -34.489 -24.658  0.00  0.00    +0.395 C 
ATOM      2  F   UNL     1      21.504 -34.702 -23.613  0.00  0.00    -0.170 F 
ATOM      3  F   UNL     1      19.676 -35.421 -24.513  0.00  0.00    -0.170 F 
ATOM      4  F   UNL     1      21.353 -34.779 -25.767  0.00  0.00    -0.170 F 
ENDROOT
BRANCH   1   5
ATOM      5  C   UNL     1      20.169 -33.079 -24.570  0.00  0.00    +0.165 C 
BRANCH   5   6
ATOM      6  C   UNL     1      18.852 -33.237 -23.881  0.00  0.00    +0.050 C 
ATOM      7  O   UNL     1      17.837 -33.122 -24.624  0.00  0.00    -0.550 OA
ATOM      8  O   UNL     1      18.910 -33.361 -22.627  0.00  0.00    -0.550 OA
ENDBRANCH   5   6
ENDBRANCH   1   5
TORSDOF 2
ENDMDL
MODEL 7
REMARK VINA RESULT:    -3.187     14.094     14.848
REMARK INTER + INTRA:          -3.578
REMARK INTER:                  -3.633
REMARK INTRA:                   0.055
REMARK UNBOUND:                -0.019
REMARK  Name = 
REMARK  2 active torsions:
REMARK  status: ('A' for Active; 'I' for Inactive)
REMARK    1  A    between atoms: C_1  and  C_2
REMARK    2  A    between atoms: C_2  and  C_3
REMARK                            x       y       z     vdW  Elec       q    Type
REMARK                         _______ _______ _______ _____ _____    ______ ____
ROOT
ATOM      1  C   UNL     1      21.027 -33.859 -24.551  0.00  0.00    +0.395 C 
ATOM      2  F   UNL     1      22.395 -33.950 -24.511  0.00  0.00    -0.170 F 
ATOM      3  F   UNL     1      20.676 -34.360 -25.754  0.00  0.00    -0.170 F 
ATOM      4  F   UNL     1      20.762 -32.536 -24.544  0.00  0.00    -0.170 F 
ENDROOT
BRANCH   1   5
ATOM      5  C   UNL     1      20.492 -34.609 -23.380  0.00  0.00    +0.165 C 
BRANCH   5   6
ATOM      6  C   UNL     1      20.285 -35.973 -23.955  0.00  0.00    +0.050 C 
ATOM      7  O   UNL     1      19.113 -36.217 -24.354  0.00  0.00    -0.550 OA
ATOM      8  O   UNL     1      21.276 -36.749 -23.876  0.00  0.00    -0.550 OA
ENDBRANCH   5   6
ENDBRANCH   1   5
TORSDOF 2
ENDMDL
MODEL 8
REMARK VINA RESULT:    -3.127     13.263     13.948
REMARK INTER + INTRA:          -3.512
REMARK INTER:                  -3.493
REMARK INTRA:                  -0.019
REMARK UNBOUND:                -0.019
REMARK  Name = 
REMARK  2 active torsions:
REMARK  status: ('A' for Active; 'I' for Inactive)
REMARK    1  A    between atoms: C_1  and  C_2
REMARK    2  A    between atoms: C_2  and  C_3
REMARK                            x       y       z     vdW  Elec       q    Type
REMARK                         _______ _______ _______ _____ _____    ______ ____
ROOT
ATOM      1  C   UNL     1      12.743 -37.116 -18.588  0.00  0.00    +0.395 C 
ATOM      2  F   UNL     1      11.638 -37.281 -19.384  0.00  0.00    -0.170 F 
ATOM      3  F   UNL     1      12.254 -36.881 -17.352  0.00  0.00    -0.170 F 
ATOM      4  F   UNL     1      13.333 -35.988 -19.036  0.00  0.00    -0.170 F 
ENDROOT
BRANCH   1   5
ATOM      5  C   UNL     1      13.573 -38.346 -18.710  0.00  0.00    +0.165 C 
BRANCH   5   6
ATOM      6  C   UNL     1      14.930 -37.841 -18.340  0.00  0.00    +0.050 C 
ATOM      7  O   UNL     1      15.716 -37.649 -19.309  0.00  0.00    -0.550 OA
ATOM      8  O   UNL     1      15.160 -37.767 -17.102  0.00  0.00    -0.550 OA
ENDBRANCH   5   6
ENDBRANCH   1   5
TORSDOF 2
ENDMDL
MODEL 9
REMARK VINA RESULT:    -3.102     12.765     13.383
REMARK INTER + INTRA:          -3.483
REMARK INTER:                  -3.546
REMARK INTRA:                   0.063
REMARK UNBOUND:                -0.019
REMARK  Name = 
REMARK  2 active torsions:
REMARK  status: ('A' for Active; 'I' for Inactive)
REMARK    1  A    between atoms: C_1  and  C_2
REMARK    2  A    between atoms: C_2  and  C_3
REMARK                            x       y       z     vdW  Elec       q    Type
REMARK                         _______ _______ _______ _____ _____    ______ ____
ROOT
ATOM      1  C   UNL     1      17.945 -32.965 -19.552  0.00  0.00    +0.395 C 
ATOM      2  F   UNL     1      17.526 -32.791 -18.258  0.00  0.00    -0.170 F 
ATOM      3  F   UNL     1      17.801 -31.756 -20.134  0.00  0.00    -0.170 F 
ATOM      4  F   UNL     1      17.051 -33.813 -20.100  0.00  0.00    -0.170 F 
ENDROOT
BRANCH   1   5
ATOM      5  C   UNL     1      19.343 -33.476 -19.507  0.00  0.00    +0.165 C 
BRANCH   5   6
ATOM      6  C   UNL     1      19.493 -34.086 -20.863  0.00  0.00    +0.050 C 
ATOM      7  O   UNL     1      19.621 -33.266 -21.813  0.00  0.00    -0.550 OA
ATOM      8  O   UNL     1      19.369 -35.341 -20.907  0.00  0.00    -0.550 OA
ENDBRANCH   5   6
ENDBRANCH   1   5
TORSDOF 2
ENDMDL
