
  MJ192500                      

  8  7  0  0  0  0  0  0  0  0999 V2000
   -4.2410   -0.0892    0.0000 C   0  0  0  0  0  0  0  0  0  0  0  0
   -3.4205   -0.1755    0.0000 C   0  0  0  0  0  0  0  0  0  0  0  0
   -2.7061    0.2369    0.0000 C   0  0  0  0  0  0  0  0  0  0  0  0
   -1.9916   -0.1755    0.0000 O   0  0  0  0  0  0  0  0  0  0  0  0
   -4.7259   -0.7567    0.0000 F   0  0  0  0  0  0  0  0  0  0  0  0
   -4.5766    0.6643    0.0000 F   0  0  0  0  0  0  0  0  0  0  0  0
   -3.9055   -0.8429    0.0000 F   0  0  0  0  0  0  0  0  0  0  0  0
   -2.7061    1.0619    0.0000 O   0  0  0  0  0  0  0  0  0  0  0  0
  1  2  1  0  0  0  0
  2  3  1  0  0  0  0
  1  7  1  0  0  0  0
  1  5  1  0  0  0  0
  1  6  1  0  0  0  0
  3  4  1  0  0  0  0
  3  8  2  0  0  0  0
M  END
