MODEL 1
REMARK VINA RESULT:    -5.156      0.000      0.000
REMARK INTER + INTRA:          -5.643
REMARK INTER:                  -5.450
REMARK INTRA:                  -0.194
REMARK UNBOUND:                -0.186
REMARK  Name = 
REMARK  1 active torsions:
REMARK  status: ('A' for Active; 'I' for Inactive)
REMARK    1  A    between atoms: C_9  and  C_12
REMARK                            x       y       z     vdW  Elec       q    Type
REMARK                         _______ _______ _______ _____ _____    ______ ____
ROOT
ATOM      1  C   UNL     1      20.807 -35.673 -21.704  0.00  0.00    +0.011 A 
ATOM      2  C   UNL     1      20.460 -35.047 -20.511  0.00  0.00    +0.018 A 
ATOM      3  C   UNL     1      20.834 -35.572 -19.182  0.00  0.00    +0.028 A 
ATOM      4  C   UNL     1      19.857 -35.330 -18.281  0.00  0.00    +0.082 A 
ATOM      5  C   UNL     1      19.638 -33.877 -18.123  0.00  0.00    +0.346 A 
ATOM      6  O   UNL     1      19.747 -33.295 -17.048  0.00  0.00    -0.244 OA
ATOM      7  O   UNL     1      19.426 -33.190 -19.328  0.00  0.00    -0.422 OA
ATOM      8  C   UNL     1      19.736 -33.848 -20.540  0.00  0.00    +0.139 A 
ATOM      9  C   UNL     1      19.351 -33.262 -21.740  0.00  0.00    +0.047 A 
ATOM     10  C   UNL     1      19.693 -33.896 -22.934  0.00  0.00    +0.004 A 
ATOM     11  C   UNL     1      20.419 -35.094 -22.917  0.00  0.00    +0.001 A 
ENDROOT
BRANCH   4  12
ATOM     12  C   UNL     1      18.573 -36.165 -18.362  0.00  0.00    +0.079 C 
ATOM     13  O   UNL     1      18.747 -37.405 -18.562  0.00  0.00    -0.544 OA
ATOM     14  O   UNL     1      17.489 -35.537 -18.210  0.00  0.00    -0.544 OA
ENDBRANCH   4  12
TORSDOF 1
ENDMDL
MODEL 2
REMARK VINA RESULT:    -5.047      4.044      5.770
REMARK INTER + INTRA:          -5.527
REMARK INTER:                  -5.333
REMARK INTRA:                  -0.194
REMARK UNBOUND:                -0.186
REMARK  Name = 
REMARK  1 active torsions:
REMARK  status: ('A' for Active; 'I' for Inactive)
REMARK    1  A    between atoms: C_9  and  C_12
REMARK                            x       y       z     vdW  Elec       q    Type
REMARK                         _______ _______ _______ _____ _____    ______ ____
ROOT
ATOM      1  C   UNL     1      20.461 -33.391 -24.842  0.00  0.00    +0.011 A 
ATOM      2  C   UNL     1      21.170 -34.490 -24.372  0.00  0.00    +0.018 A 
ATOM      3  C   UNL     1      22.223 -35.169 -25.154  0.00  0.00    +0.028 A 
ATOM      4  C   UNL     1      22.210 -36.500 -24.919  0.00  0.00    +0.082 A 
ATOM      5  C   UNL     1      22.484 -36.782 -23.494  0.00  0.00    +0.346 A 
ATOM      6  O   UNL     1      23.421 -37.479 -23.116  0.00  0.00    -0.244 OA
ATOM      7  O   UNL     1      21.663 -36.081 -22.598  0.00  0.00    -0.422 OA
ATOM      8  C   UNL     1      20.908 -34.992 -23.090  0.00  0.00    +0.139 A 
ATOM      9  C   UNL     1      19.948 -34.414 -22.268  0.00  0.00    +0.047 A 
ATOM     10  C   UNL     1      19.233 -33.315 -22.744  0.00  0.00    +0.004 A 
ATOM     11  C   UNL     1      19.488 -32.804 -24.023  0.00  0.00    +0.001 A 
ENDROOT
BRANCH   4  12
ATOM     12  C   UNL     1      21.077 -37.333 -25.531  0.00  0.00    +0.079 C 
ATOM     13  O   UNL     1      20.742 -37.006 -26.708  0.00  0.00    -0.544 OA
ATOM     14  O   UNL     1      20.611 -38.256 -24.807  0.00  0.00    -0.544 OA
ENDBRANCH   4  12
TORSDOF 1
ENDMDL
MODEL 3
REMARK VINA RESULT:    -4.942      1.427      2.001
REMARK INTER + INTRA:          -5.417
REMARK INTER:                  -5.224
REMARK INTRA:                  -0.193
REMARK UNBOUND:                -0.186
REMARK  Name = 
REMARK  1 active torsions:
REMARK  status: ('A' for Active; 'I' for Inactive)
REMARK    1  A    between atoms: C_9  and  C_12
REMARK                            x       y       z     vdW  Elec       q    Type
REMARK                         _______ _______ _______ _____ _____    ______ ____
ROOT
ATOM      1  C   UNL     1      19.901 -34.647 -21.293  0.00  0.00    +0.011 A 
ATOM      2  C   UNL     1      20.081 -35.040 -19.971  0.00  0.00    +0.018 A 
ATOM      3  C   UNL     1      20.701 -36.324 -19.585  0.00  0.00    +0.028 A 
ATOM      4  C   UNL     1      20.121 -36.818 -18.470  0.00  0.00    +0.082 A 
ATOM      5  C   UNL     1      20.303 -35.894 -17.331  0.00  0.00    +0.346 A 
ATOM      6  O   UNL     1      20.859 -36.217 -16.286  0.00  0.00    -0.244 OA
ATOM      7  O   UNL     1      19.906 -34.572 -17.590  0.00  0.00    -0.422 OA
ATOM      8  C   UNL     1      19.680 -34.191 -18.932  0.00  0.00    +0.139 A 
ATOM      9  C   UNL     1      19.101 -32.954 -19.190  0.00  0.00    +0.047 A 
ATOM     10  C   UNL     1      18.915 -32.565 -20.517  0.00  0.00    +0.004 A 
ATOM     11  C   UNL     1      19.315 -33.406 -21.563  0.00  0.00    +0.001 A 
ENDROOT
BRANCH   4  12
ATOM     12  C   UNL     1      18.715 -37.418 -18.589  0.00  0.00    +0.079 C 
ATOM     13  O   UNL     1      18.521 -38.141 -19.612  0.00  0.00    -0.544 OA
ATOM     14  O   UNL     1      17.909 -37.140 -17.658  0.00  0.00    -0.544 OA
ENDBRANCH   4  12
TORSDOF 1
ENDMDL
MODEL 4
REMARK VINA RESULT:    -4.777      3.645      5.159
REMARK INTER + INTRA:          -5.242
REMARK INTER:                  -5.054
REMARK INTRA:                  -0.187
REMARK UNBOUND:                -0.186
REMARK  Name = 
REMARK  1 active torsions:
REMARK  status: ('A' for Active; 'I' for Inactive)
REMARK    1  A    between atoms: C_9  and  C_12
REMARK                            x       y       z     vdW  Elec       q    Type
REMARK                         _______ _______ _______ _____ _____    ______ ____
ROOT
ATOM      1  C   UNL     1      21.090 -34.105 -24.900  0.00  0.00    +0.011 A 
ATOM      2  C   UNL     1      20.948 -35.238 -24.107  0.00  0.00    +0.018 A 
ATOM      3  C   UNL     1      21.650 -36.510 -24.377  0.00  0.00    +0.028 A 
ATOM      4  C   UNL     1      20.870 -37.564 -24.052  0.00  0.00    +0.082 A 
ATOM      5  C   UNL     1      20.546 -37.550 -22.609  0.00  0.00    +0.346 A 
ATOM      6  O   UNL     1      20.825 -38.473 -21.850  0.00  0.00    -0.244 OA
ATOM      7  O   UNL     1      20.011 -36.337 -22.149  0.00  0.00    -0.422 OA
ATOM      8  C   UNL     1      20.118 -35.198 -22.979  0.00  0.00    +0.139 A 
ATOM      9  C   UNL     1      19.426 -34.045 -22.629  0.00  0.00    +0.047 A 
ATOM     10  C   UNL     1      19.565 -32.912 -23.431  0.00  0.00    +0.004 A 
ATOM     11  C   UNL     1      20.394 -32.940 -24.559  0.00  0.00    +0.001 A 
ENDROOT
BRANCH   4  12
ATOM     12  C   UNL     1      19.690 -37.904 -24.970  0.00  0.00    +0.079 C 
ATOM     13  O   UNL     1      18.633 -38.273 -24.376  0.00  0.00    -0.544 OA
ATOM     14  O   UNL     1      19.892 -37.771 -26.209  0.00  0.00    -0.544 OA
ENDBRANCH   4  12
TORSDOF 1
ENDMDL
MODEL 5
REMARK VINA RESULT:    -4.763      2.009      2.898
REMARK INTER + INTRA:          -5.227
REMARK INTER:                  -5.054
REMARK INTRA:                  -0.172
REMARK UNBOUND:                -0.186
REMARK  Name = 
REMARK  1 active torsions:
REMARK  status: ('A' for Active; 'I' for Inactive)
REMARK    1  A    between atoms: C_9  and  C_12
REMARK                            x       y       z     vdW  Elec       q    Type
REMARK                         _______ _______ _______ _____ _____    ______ ____
ROOT
ATOM      1  C   UNL     1      21.427 -34.925 -24.190  0.00  0.00    +0.011 A 
ATOM      2  C   UNL     1      21.050 -35.122 -22.866  0.00  0.00    +0.018 A 
ATOM      3  C   UNL     1      21.683 -36.123 -21.984  0.00  0.00    +0.028 A 
ATOM      4  C   UNL     1      20.774 -36.660 -21.142  0.00  0.00    +0.082 A 
ATOM      5  C   UNL     1      20.194 -35.621 -20.265  0.00  0.00    +0.346 A 
ATOM      6  O   UNL     1      20.253 -35.667 -19.040  0.00  0.00    -0.244 OA
ATOM      7  O   UNL     1      19.685 -34.506 -20.949  0.00  0.00    -0.422 OA
ATOM      8  C   UNL     1      20.034 -34.335 -22.308  0.00  0.00    +0.139 A 
ATOM      9  C   UNL     1      19.386 -33.355 -23.049  0.00  0.00    +0.047 A 
ATOM     10  C   UNL     1      19.761 -33.164 -24.379  0.00  0.00    +0.004 A 
ATOM     11  C   UNL     1      20.778 -33.943 -24.947  0.00  0.00    +0.001 A 
ENDROOT
BRANCH   4  12
ATOM     12  C   UNL     1      19.758 -37.657 -21.712  0.00  0.00    +0.079 C 
ATOM     13  O   UNL     1      20.179 -38.369 -22.671  0.00  0.00    -0.544 OA
ATOM     14  O   UNL     1      18.621 -37.671 -21.161  0.00  0.00    -0.544 OA
ENDBRANCH   4  12
TORSDOF 1
ENDMDL
MODEL 6
REMARK VINA RESULT:    -4.696      5.447      6.842
REMARK INTER + INTRA:          -5.156
REMARK INTER:                  -4.970
REMARK INTRA:                  -0.186
REMARK UNBOUND:                -0.186
REMARK  Name = 
REMARK  1 active torsions:
REMARK  status: ('A' for Active; 'I' for Inactive)
REMARK    1  A    between atoms: C_9  and  C_12
REMARK                            x       y       z     vdW  Elec       q    Type
REMARK                         _______ _______ _______ _____ _____    ______ ____
ROOT
ATOM      1  C   UNL     1      20.093 -38.591 -26.709  0.00  0.00    +0.011 A 
ATOM      2  C   UNL     1      20.295 -37.338 -26.140  0.00  0.00    +0.018 A 
ATOM      3  C   UNL     1      21.155 -36.302 -26.749  0.00  0.00    +0.028 A 
ATOM      4  C   UNL     1      21.792 -35.590 -25.794  0.00  0.00    +0.082 A 
ATOM      5  C   UNL     1      20.821 -34.888 -24.928  0.00  0.00    +0.346 A 
ATOM      6  O   UNL     1      20.812 -33.669 -24.780  0.00  0.00    -0.244 OA
ATOM      7  O   UNL     1      19.824 -35.715 -24.390  0.00  0.00    -0.422 OA
ATOM      8  C   UNL     1      19.653 -37.006 -24.941  0.00  0.00    +0.139 A 
ATOM      9  C   UNL     1      18.811 -37.904 -24.297  0.00  0.00    +0.047 A 
ATOM     10  C   UNL     1      18.615 -39.163 -24.865  0.00  0.00    +0.004 A 
ATOM     11  C   UNL     1      19.251 -39.505 -26.066  0.00  0.00    +0.001 A 
ENDROOT
BRANCH   4  12
ATOM     12  C   UNL     1      22.953 -36.256 -25.046  0.00  0.00    +0.079 C 
ATOM     13  O   UNL     1      23.808 -36.835 -25.781  0.00  0.00    -0.544 OA
ATOM     14  O   UNL     1      22.941 -36.147 -23.788  0.00  0.00    -0.544 OA
ENDBRANCH   4  12
TORSDOF 1
ENDMDL
MODEL 7
REMARK VINA RESULT:    -4.634      1.618      2.499
REMARK INTER + INTRA:          -5.091
REMARK INTER:                  -4.898
REMARK INTRA:                  -0.193
REMARK UNBOUND:                -0.186
REMARK  Name = 
REMARK  1 active torsions:
REMARK  status: ('A' for Active; 'I' for Inactive)
REMARK    1  A    between atoms: C_9  and  C_12
REMARK                            x       y       z     vdW  Elec       q    Type
REMARK                         _______ _______ _______ _____ _____    ______ ____
ROOT
ATOM      1  C   UNL     1      21.839 -36.092 -18.912  0.00  0.00    +0.011 A 
ATOM      2  C   UNL     1      20.841 -35.184 -19.247  0.00  0.00    +0.018 A 
ATOM      3  C   UNL     1      20.214 -34.272 -18.268  0.00  0.00    +0.028 A 
ATOM      4  C   UNL     1      18.906 -34.093 -18.552  0.00  0.00    +0.082 A 
ATOM      5  C   UNL     1      18.739 -33.473 -19.884  0.00  0.00    +0.346 A 
ATOM      6  O   UNL     1      18.157 -32.407 -20.060  0.00  0.00    -0.244 OA
ATOM      7  O   UNL     1      19.417 -34.136 -20.919  0.00  0.00    -0.422 OA
ATOM      8  C   UNL     1      20.399 -35.093 -20.573  0.00  0.00    +0.139 A 
ATOM      9  C   UNL     1      20.936 -35.895 -21.573  0.00  0.00    +0.047 A 
ATOM     10  C   UNL     1      21.932 -36.810 -21.233  0.00  0.00    +0.004 A 
ATOM     11  C   UNL     1      22.383 -36.908 -19.911  0.00  0.00    +0.001 A 
ENDROOT
BRANCH   4  12
ATOM     12  C   UNL     1      17.935 -35.242 -18.255  0.00  0.00    +0.079 C 
ATOM     13  O   UNL     1      18.106 -35.818 -17.139  0.00  0.00    -0.544 OA
ATOM     14  O   UNL     1      17.068 -35.483 -19.141  0.00  0.00    -0.544 OA
ENDBRANCH   4  12
TORSDOF 1
ENDMDL
MODEL 8
REMARK VINA RESULT:    -4.515      2.874      4.303
REMARK INTER + INTRA:          -4.964
REMARK INTER:                  -4.779
REMARK INTRA:                  -0.186
REMARK UNBOUND:                -0.186
REMARK  Name = 
REMARK  1 active torsions:
REMARK  status: ('A' for Active; 'I' for Inactive)
REMARK    1  A    between atoms: C_9  and  C_12
REMARK                            x       y       z     vdW  Elec       q    Type
REMARK                         _______ _______ _______ _____ _____    ______ ____
ROOT
ATOM      1  C   UNL     1      19.431 -33.885 -22.656  0.00  0.00    +0.011 A 
ATOM      2  C   UNL     1      20.055 -35.127 -22.636  0.00  0.00    +0.018 A 
ATOM      3  C   UNL     1      19.726 -36.184 -21.659  0.00  0.00    +0.028 A 
ATOM      4  C   UNL     1      20.831 -36.881 -21.318  0.00  0.00    +0.082 A 
ATOM      5  C   UNL     1      21.410 -37.555 -22.500  0.00  0.00    +0.346 A 
ATOM      6  O   UNL     1      21.572 -38.770 -22.568  0.00  0.00    -0.244 OA
ATOM      7  O   UNL     1      21.638 -36.707 -23.595  0.00  0.00    -0.422 OA
ATOM      8  C   UNL     1      21.038 -35.427 -23.589  0.00  0.00    +0.139 A 
ATOM      9  C   UNL     1      21.409 -34.507 -24.562  0.00  0.00    +0.047 A 
ATOM     10  C   UNL     1      20.786 -33.259 -24.575  0.00  0.00    +0.004 A 
ATOM     11  C   UNL     1      19.800 -32.950 -23.629  0.00  0.00    +0.001 A 
ENDROOT
BRANCH   4  12
ATOM     12  C   UNL     1      21.857 -36.210 -20.398  0.00  0.00    +0.079 C 
ATOM     13  O   UNL     1      23.069 -36.361 -20.738  0.00  0.00    -0.544 OA
ATOM     14  O   UNL     1      21.390 -35.574 -19.412  0.00  0.00    -0.544 OA
ENDBRANCH   4  12
TORSDOF 1
ENDMDL
MODEL 9
REMARK VINA RESULT:    -4.439      3.986      5.636
REMARK INTER + INTRA:          -4.884
REMARK INTER:                  -4.698
REMARK INTRA:                  -0.186
REMARK UNBOUND:                -0.186
REMARK  Name = 
REMARK  1 active torsions:
REMARK  status: ('A' for Active; 'I' for Inactive)
REMARK    1  A    between atoms: C_9  and  C_12
REMARK                            x       y       z     vdW  Elec       q    Type
REMARK                         _______ _______ _______ _____ _____    ______ ____
ROOT
ATOM      1  C   UNL     1      19.913 -35.655 -21.212  0.00  0.00    +0.011 A 
ATOM      2  C   UNL     1      20.085 -35.874 -22.574  0.00  0.00    +0.018 A 
ATOM      3  C   UNL     1      20.414 -37.195 -23.148  0.00  0.00    +0.028 A 
ATOM      4  C   UNL     1      21.234 -37.063 -24.213  0.00  0.00    +0.082 A 
ATOM      5  C   UNL     1      20.579 -36.282 -25.284  0.00  0.00    +0.346 A 
ATOM      6  O   UNL     1      20.399 -36.716 -26.417  0.00  0.00    -0.244 OA
ATOM      7  O   UNL     1      20.059 -35.048 -24.863  0.00  0.00    -0.422 OA
ATOM      8  C   UNL     1      19.929 -34.813 -23.475  0.00  0.00    +0.139 A 
ATOM      9  C   UNL     1      19.603 -33.534 -23.039  0.00  0.00    +0.047 A 
ATOM     10  C   UNL     1      19.438 -33.316 -21.671  0.00  0.00    +0.004 A 
ATOM     11  C   UNL     1      19.590 -34.371 -20.762  0.00  0.00    +0.001 A 
ENDROOT
BRANCH   4  12
ATOM     12  C   UNL     1      22.701 -36.696 -23.958  0.00  0.00    +0.079 C 
ATOM     13  O   UNL     1      23.178 -35.811 -24.729  0.00  0.00    -0.544 OA
ATOM     14  O   UNL     1      23.270 -37.302 -23.007  0.00  0.00    -0.544 OA
ENDBRANCH   4  12
TORSDOF 1
ENDMDL
