
  MJ192500                      

 14 15  0  0  0  0  0  0  0  0999 V2000
   -4.1964    0.0884    0.0000 C   0  0  0  0  0  0  0  0  0  0  0  0
   -4.9108   -0.3240    0.0000 C   0  0  0  0  0  0  0  0  0  0  0  0
   -4.9108   -1.1491    0.0000 C   0  0  0  0  0  0  0  0  0  0  0  0
   -4.1964   -1.5616    0.0000 C   0  0  0  0  0  0  0  0  0  0  0  0
   -3.4819   -1.1491    0.0000 C   0  0  0  0  0  0  0  0  0  0  0  0
   -3.4819   -0.3240    0.0000 C   0  0  0  0  0  0  0  0  0  0  0  0
   -2.7674   -1.5616    0.0000 O   0  0  0  0  0  0  0  0  0  0  0  0
   -2.0529   -1.1492    0.0000 C   0  0  0  0  0  0  0  0  0  0  0  0
   -2.0529   -0.3242    0.0000 C   0  0  0  0  0  0  0  0  0  0  0  0
   -2.7674    0.0883    0.0000 C   0  0  0  0  0  0  0  0  0  0  0  0
   -1.3385   -1.5618    0.0000 O   0  0  0  0  0  0  0  0  0  0  0  0
   -1.3384    0.0882    0.0000 C   0  0  0  0  0  0  0  0  0  0  0  0
   -1.3384    0.9132    0.0000 O   0  0  0  0  0  0  0  0  0  0  0  0
   -0.6239   -0.3242    0.0000 O   0  0  0  0  0  0  0  0  0  0  0  0
  1  2  2  0  0  0  0
  2  3  1  0  0  0  0
  3  4  2  0  0  0  0
  4  5  1  0  0  0  0
  5  6  2  0  0  0  0
  6  1  1  0  0  0  0
  8  9  1  0  0  0  0
  9 10  2  0  0  0  0
 10  6  1  0  0  0  0
  9 12  1  0  0  0  0
  7  8  1  0  0  0  0
  5  7  1  0  0  0  0
  8 11  2  0  0  0  0
 12 13  2  0  0  0  0
 12 14  1  0  0  0  0
M  END
