MODEL 1
REMARK VINA RESULT:    -4.929      0.000      0.000
REMARK INTER + INTRA:          -5.762
REMARK INTER:                  -5.522
REMARK INTRA:                  -0.240
REMARK UNBOUND:                -0.256
REMARK  Name = 
REMARK  3 active torsions:
REMARK  status: ('A' for Active; 'I' for Inactive)
REMARK    1  A    between atoms: C_1  and  C_9
REMARK    2  A    between atoms: C_5  and  O_8
REMARK    3  A    between atoms: C_6  and  N_7
REMARK                            x       y       z     vdW  Elec       q    Type
REMARK                         _______ _______ _______ _____ _____    ______ ____
ROOT
ATOM      1  C   UNL     1      19.920 -34.695 -19.282  0.00  0.00    +0.022 A 
ATOM      2  C   UNL     1      19.056 -33.602 -19.098  0.00  0.00    +0.076 A 
ATOM      3  C   UNL     1      18.594 -32.889 -20.216  0.00  0.00    +0.138 A 
ATOM      4  C   UNL     1      18.903 -33.264 -21.513  0.00  0.00    +0.047 A 
ATOM      5  C   UNL     1      19.723 -34.372 -21.708  0.00  0.00    +0.004 A 
ATOM      6  C   UNL     1      20.227 -35.075 -20.606  0.00  0.00    +0.012 A 
ENDROOT
BRANCH   1   7
ATOM      7  C   UNL     1      20.504 -35.471 -18.119  0.00  0.00    +0.074 C 
ATOM      8  O   UNL     1      19.788 -35.600 -17.077  0.00  0.00    -0.545 OA
ATOM      9  O   UNL     1      21.678 -35.946 -18.276  0.00  0.00    -0.545 OA
ENDBRANCH   1   7
BRANCH   2  10
ATOM     10  N   UNL     1      18.809 -33.022 -17.810  0.00  0.00    -0.355 N 
ATOM     11  H   UNL     1      18.321 -33.781 -17.279  0.00  0.00    +0.142 HD
ATOM     12  H   UNL     1      19.709 -32.992 -17.328  0.00  0.00    +0.142 HD
ENDBRANCH   2  10
BRANCH   3  13
ATOM     13  O   UNL     1      17.801 -31.792 -19.991  0.00  0.00    -0.505 OA
ATOM     14  H   UNL     1      17.410 -31.653 -20.882  0.00  0.00    +0.292 HD
ENDBRANCH   3  13
TORSDOF 3
ENDMDL
MODEL 2
REMARK VINA RESULT:    -4.904      1.804      2.251
REMARK INTER + INTRA:          -5.734
REMARK INTER:                  -5.467
REMARK INTRA:                  -0.267
REMARK UNBOUND:                -0.256
REMARK  Name = 
REMARK  3 active torsions:
REMARK  status: ('A' for Active; 'I' for Inactive)
REMARK    1  A    between atoms: C_1  and  C_9
REMARK    2  A    between atoms: C_5  and  O_8
REMARK    3  A    between atoms: C_6  and  N_7
REMARK                            x       y       z     vdW  Elec       q    Type
REMARK                         _______ _______ _______ _____ _____    ______ ____
ROOT
ATOM      1  C   UNL     1      19.184 -33.837 -19.141  0.00  0.00    +0.022 A 
ATOM      2  C   UNL     1      18.549 -33.217 -20.231  0.00  0.00    +0.076 A 
ATOM      3  C   UNL     1      18.911 -33.577 -21.540  0.00  0.00    +0.138 A 
ATOM      4  C   UNL     1      19.831 -34.577 -21.804  0.00  0.00    +0.047 A 
ATOM      5  C   UNL     1      20.434 -35.228 -20.732  0.00  0.00    +0.004 A 
ATOM      6  C   UNL     1      20.117 -34.859 -19.418  0.00  0.00    +0.012 A 
ENDROOT
BRANCH   1   7
ATOM      7  C   UNL     1      18.886 -33.455 -17.706  0.00  0.00    +0.074 C 
ATOM      8  O   UNL     1      17.666 -33.353 -17.364  0.00  0.00    -0.545 OA
ATOM      9  O   UNL     1      19.889 -33.269 -16.940  0.00  0.00    -0.545 OA
ENDBRANCH   1   7
BRANCH   2  10
ATOM     10  N   UNL     1      17.716 -32.059 -20.083  0.00  0.00    -0.355 N 
ATOM     11  H   UNL     1      18.139 -31.544 -19.276  0.00  0.00    +0.142 HD
ATOM     12  H   UNL     1      17.948 -31.435 -20.857  0.00  0.00    +0.142 HD
ENDBRANCH   2  10
BRANCH   3  13
ATOM     13  O   UNL     1      18.311 -32.906 -22.576  0.00  0.00    -0.505 OA
ATOM     14  H   UNL     1      18.933 -32.155 -22.703  0.00  0.00    +0.292 HD
ENDBRANCH   3  13
TORSDOF 3
ENDMDL
MODEL 3
REMARK VINA RESULT:    -4.463      1.389      3.832
REMARK INTER + INTRA:          -5.241
REMARK INTER:                  -4.973
REMARK INTRA:                  -0.268
REMARK UNBOUND:                -0.256
REMARK  Name = 
REMARK  3 active torsions:
REMARK  status: ('A' for Active; 'I' for Inactive)
REMARK    1  A    between atoms: C_1  and  C_9
REMARK    2  A    between atoms: C_5  and  O_8
REMARK    3  A    between atoms: C_6  and  N_7
REMARK                            x       y       z     vdW  Elec       q    Type
REMARK                         _______ _______ _______ _____ _____    ______ ____
ROOT
ATOM      1  C   UNL     1      19.491 -34.461 -19.508  0.00  0.00    +0.022 A 
ATOM      2  C   UNL     1      20.055 -34.398 -18.223  0.00  0.00    +0.076 A 
ATOM      3  C   UNL     1      20.368 -35.588 -17.544  0.00  0.00    +0.138 A 
ATOM      4  C   UNL     1      20.205 -36.834 -18.124  0.00  0.00    +0.047 A 
ATOM      5  C   UNL     1      19.687 -36.907 -19.413  0.00  0.00    +0.004 A 
ATOM      6  C   UNL     1      19.332 -35.736 -20.094  0.00  0.00    +0.012 A 
ENDROOT
BRANCH   1   7
ATOM      7  C   UNL     1      19.074 -33.222 -20.272  0.00  0.00    +0.074 C 
ATOM      8  O   UNL     1      19.632 -33.004 -21.393  0.00  0.00    -0.545 OA
ATOM      9  O   UNL     1      18.182 -32.486 -19.732  0.00  0.00    -0.545 OA
ENDBRANCH   1   7
BRANCH   2  10
ATOM     10  N   UNL     1      20.108 -33.184 -17.462  0.00  0.00    -0.355 N 
ATOM     11  H   UNL     1      20.450 -33.489 -16.521  0.00  0.00    +0.142 HD
ATOM     12  H   UNL     1      20.917 -32.662 -17.805  0.00  0.00    +0.142 HD
ENDBRANCH   2  10
BRANCH   3  13
ATOM     13  O   UNL     1      20.861 -35.484 -16.268  0.00  0.00    -0.505 OA
ATOM     14  H   UNL     1      21.617 -36.112 -16.304  0.00  0.00    +0.292 HD
ENDBRANCH   3  13
TORSDOF 3
ENDMDL
MODEL 4
REMARK VINA RESULT:    -4.423      2.056      3.458
REMARK INTER + INTRA:          -5.197
REMARK INTER:                  -4.978
REMARK INTRA:                  -0.218
REMARK UNBOUND:                -0.256
REMARK  Name = 
REMARK  3 active torsions:
REMARK  status: ('A' for Active; 'I' for Inactive)
REMARK    1  A    between atoms: C_1  and  C_9
REMARK    2  A    between atoms: C_5  and  O_8
REMARK    3  A    between atoms: C_6  and  N_7
REMARK                            x       y       z     vdW  Elec       q    Type
REMARK                         _______ _______ _______ _____ _____    ______ ____
ROOT
ATOM      1  C   UNL     1      19.846 -34.376 -20.573  0.00  0.00    +0.022 A 
ATOM      2  C   UNL     1      19.520 -33.491 -19.531  0.00  0.00    +0.076 A 
ATOM      3  C   UNL     1      19.684 -33.901 -18.197  0.00  0.00    +0.138 A 
ATOM      4  C   UNL     1      20.224 -35.131 -17.863  0.00  0.00    +0.047 A 
ATOM      5  C   UNL     1      20.591 -35.999 -18.887  0.00  0.00    +0.004 A 
ATOM      6  C   UNL     1      20.401 -35.626 -20.224  0.00  0.00    +0.012 A 
ENDROOT
BRANCH   1   7
ATOM      7  C   UNL     1      19.638 -34.023 -22.031  0.00  0.00    +0.074 C 
ATOM      8  O   UNL     1      18.610 -33.338 -22.331  0.00  0.00    -0.545 OA
ATOM      9  O   UNL     1      20.519 -34.438 -22.855  0.00  0.00    -0.545 OA
ENDBRANCH   1   7
BRANCH   2  10
ATOM     10  N   UNL     1      18.799 -32.272 -19.751  0.00  0.00    -0.355 N 
ATOM     11  H   UNL     1      19.267 -31.847 -20.586  0.00  0.00    +0.142 HD
ATOM     12  H   UNL     1      17.895 -32.537 -20.147  0.00  0.00    +0.142 HD
ENDBRANCH   2  10
BRANCH   3  13
ATOM     13  O   UNL     1      19.298 -33.031 -17.209  0.00  0.00    -0.505 OA
ATOM     14  H   UNL     1      20.091 -32.453 -17.143  0.00  0.00    +0.292 HD
ENDBRANCH   3  13
TORSDOF 3
ENDMDL
MODEL 5
REMARK VINA RESULT:    -4.417      1.983      2.770
REMARK INTER + INTRA:          -5.190
REMARK INTER:                  -4.921
REMARK INTRA:                  -0.269
REMARK UNBOUND:                -0.256
REMARK  Name = 
REMARK  3 active torsions:
REMARK  status: ('A' for Active; 'I' for Inactive)
REMARK    1  A    between atoms: C_1  and  C_9
REMARK    2  A    between atoms: C_5  and  O_8
REMARK    3  A    between atoms: C_6  and  N_7
REMARK                            x       y       z     vdW  Elec       q    Type
REMARK                         _______ _______ _______ _____ _____    ______ ____
ROOT
ATOM      1  C   UNL     1      20.334 -35.261 -20.110  0.00  0.00    +0.022 A 
ATOM      2  C   UNL     1      20.396 -34.833 -18.773  0.00  0.00    +0.076 A 
ATOM      3  C   UNL     1      19.839 -33.594 -18.415  0.00  0.00    +0.138 A 
ATOM      4  C   UNL     1      19.161 -32.798 -19.324  0.00  0.00    +0.047 A 
ATOM      5  C   UNL     1      19.055 -33.233 -20.641  0.00  0.00    +0.004 A 
ATOM      6  C   UNL     1      19.638 -34.447 -21.029  0.00  0.00    +0.012 A 
ENDROOT
BRANCH   1   7
ATOM      7  C   UNL     1      20.966 -36.556 -20.577  0.00  0.00    +0.074 C 
ATOM      8  O   UNL     1      21.743 -36.504 -21.581  0.00  0.00    -0.545 OA
ATOM      9  O   UNL     1      20.674 -37.609 -19.919  0.00  0.00    -0.545 OA
ENDBRANCH   1   7
BRANCH   2  10
ATOM     10  N   UNL     1      21.214 -35.484 -17.791  0.00  0.00    -0.355 N 
ATOM     11  H   UNL     1      22.191 -35.220 -18.059  0.00  0.00    +0.142 HD
ATOM     12  H   UNL     1      21.098 -34.958 -16.924  0.00  0.00    +0.142 HD
ENDBRANCH   2  10
BRANCH   3  13
ATOM     13  O   UNL     1      19.973 -33.185 -17.113  0.00  0.00    -0.505 OA
ATOM     14  H   UNL     1      20.943 -33.034 -17.059  0.00  0.00    +0.292 HD
ENDBRANCH   3  13
TORSDOF 3
ENDMDL
MODEL 6
REMARK VINA RESULT:    -4.396      8.537      8.814
REMARK INTER + INTRA:          -5.166
REMARK INTER:                  -4.899
REMARK INTRA:                  -0.267
REMARK UNBOUND:                -0.256
REMARK  Name = 
REMARK  3 active torsions:
REMARK  status: ('A' for Active; 'I' for Inactive)
REMARK    1  A    between atoms: C_1  and  C_9
REMARK    2  A    between atoms: C_5  and  O_8
REMARK    3  A    between atoms: C_6  and  N_7
REMARK                            x       y       z     vdW  Elec       q    Type
REMARK                         _______ _______ _______ _____ _____    ______ ____
ROOT
ATOM      1  C   UNL     1      12.862 -39.713 -19.665  0.00  0.00    +0.022 A 
ATOM      2  C   UNL     1      12.368 -38.400 -19.750  0.00  0.00    +0.076 A 
ATOM      3  C   UNL     1      12.909 -37.402 -18.922  0.00  0.00    +0.138 A 
ATOM      4  C   UNL     1      13.968 -37.646 -18.064  0.00  0.00    +0.047 A 
ATOM      5  C   UNL     1      14.493 -38.933 -18.004  0.00  0.00    +0.004 A 
ATOM      6  C   UNL     1      13.944 -39.953 -18.792  0.00  0.00    +0.012 A 
ENDROOT
BRANCH   1   7
ATOM      7  C   UNL     1      12.285 -40.850 -20.483  0.00  0.00    +0.074 C 
ATOM      8  O   UNL     1      11.060 -41.139 -20.310  0.00  0.00    -0.545 OA
ATOM      9  O   UNL     1      13.077 -41.434 -21.296  0.00  0.00    -0.545 OA
ENDBRANCH   1   7
BRANCH   2  10
ATOM     10  N   UNL     1      11.172 -38.070 -20.468  0.00  0.00    -0.355 N 
ATOM     11  H   UNL     1      11.270 -38.586 -21.374  0.00  0.00    +0.142 HD
ATOM     12  H   UNL     1      10.415 -38.592 -20.025  0.00  0.00    +0.142 HD
ENDBRANCH   2  10
BRANCH   3  13
ATOM     13  O   UNL     1      12.360 -36.147 -18.993  0.00  0.00    -0.505 OA
ATOM     14  H   UNL     1      12.005 -36.042 -18.082  0.00  0.00    +0.292 HD
ENDBRANCH   3  13
TORSDOF 3
ENDMDL
MODEL 7
REMARK VINA RESULT:    -4.385      2.416      3.172
REMARK INTER + INTRA:          -5.154
REMARK INTER:                  -4.912
REMARK INTRA:                  -0.242
REMARK UNBOUND:                -0.256
REMARK  Name = 
REMARK  3 active torsions:
REMARK  status: ('A' for Active; 'I' for Inactive)
REMARK    1  A    between atoms: C_1  and  C_9
REMARK    2  A    between atoms: C_5  and  O_8
REMARK    3  A    between atoms: C_6  and  N_7
REMARK                            x       y       z     vdW  Elec       q    Type
REMARK                         _______ _______ _______ _____ _____    ______ ____
ROOT
ATOM      1  C   UNL     1      19.991 -34.724 -20.838  0.00  0.00    +0.022 A 
ATOM      2  C   UNL     1      19.160 -33.599 -20.971  0.00  0.00    +0.076 A 
ATOM      3  C   UNL     1      18.689 -32.946 -19.819  0.00  0.00    +0.138 A 
ATOM      4  C   UNL     1      19.070 -33.329 -18.544  0.00  0.00    +0.047 A 
ATOM      5  C   UNL     1      19.928 -34.416 -18.403  0.00  0.00    +0.004 A 
ATOM      6  C   UNL     1      20.379 -35.106 -19.536  0.00  0.00    +0.012 A 
ENDROOT
BRANCH   1   7
ATOM      7  C   UNL     1      20.486 -35.512 -22.034  0.00  0.00    +0.074 C 
ATOM      8  O   UNL     1      19.652 -35.764 -22.960  0.00  0.00    -0.545 OA
ATOM      9  O   UNL     1      21.712 -35.862 -22.025  0.00  0.00    -0.545 OA
ENDBRANCH   1   7
BRANCH   2  10
ATOM     10  N   UNL     1      18.567 -33.220 -22.220  0.00  0.00    -0.355 N 
ATOM     11  H   UNL     1      17.548 -33.421 -22.088  0.00  0.00    +0.142 HD
ATOM     12  H   UNL     1      18.565 -32.199 -22.241  0.00  0.00    +0.142 HD
ENDBRANCH   2  10
BRANCH   3  13
ATOM     13  O   UNL     1      17.833 -31.888 -19.990  0.00  0.00    -0.505 OA
ATOM     14  H   UNL     1      17.879 -31.760 -20.964  0.00  0.00    +0.292 HD
ENDBRANCH   3  13
TORSDOF 3
ENDMDL
MODEL 8
REMARK VINA RESULT:    -4.362      1.823      3.090
REMARK INTER + INTRA:          -5.129
REMARK INTER:                  -4.861
REMARK INTRA:                  -0.268
REMARK UNBOUND:                -0.256
REMARK  Name = 
REMARK  3 active torsions:
REMARK  status: ('A' for Active; 'I' for Inactive)
REMARK    1  A    between atoms: C_1  and  C_9
REMARK    2  A    between atoms: C_5  and  O_8
REMARK    3  A    between atoms: C_6  and  N_7
REMARK                            x       y       z     vdW  Elec       q    Type
REMARK                         _______ _______ _______ _____ _____    ______ ____
ROOT
ATOM      1  C   UNL     1      19.341 -33.808 -19.366  0.00  0.00    +0.022 A 
ATOM      2  C   UNL     1      20.118 -34.943 -19.653  0.00  0.00    +0.076 A 
ATOM      3  C   UNL     1      20.405 -35.266 -20.990  0.00  0.00    +0.138 A 
ATOM      4  C   UNL     1      20.009 -34.463 -22.046  0.00  0.00    +0.047 A 
ATOM      5  C   UNL     1      19.276 -33.313 -21.771  0.00  0.00    +0.004 A 
ATOM      6  C   UNL     1      18.944 -32.992 -20.448  0.00  0.00    +0.012 A 
ENDROOT
BRANCH   1   7
ATOM      7  C   UNL     1      18.942 -33.434 -17.953  0.00  0.00    +0.074 C 
ATOM      8  O   UNL     1      19.849 -33.443 -17.063  0.00  0.00    -0.545 OA
ATOM      9  O   UNL     1      17.717 -33.131 -17.762  0.00  0.00    -0.545 OA
ENDBRANCH   1   7
BRANCH   2  10
ATOM     10  N   UNL     1      20.434 -35.932 -18.664  0.00  0.00    -0.355 N 
ATOM     11  H   UNL     1      19.667 -35.838 -17.957  0.00  0.00    +0.142 HD
ATOM     12  H   UNL     1      20.209 -36.838 -19.078  0.00  0.00    +0.142 HD
ENDBRANCH   2  10
BRANCH   3  13
ATOM     13  O   UNL     1      21.115 -36.415 -21.231  0.00  0.00    -0.505 OA
ATOM     14  H   UNL     1      20.825 -36.980 -20.480  0.00  0.00    +0.292 HD
ENDBRANCH   3  13
TORSDOF 3
ENDMDL
MODEL 9
REMARK VINA RESULT:    -4.297      3.197      4.495
REMARK INTER + INTRA:          -5.055
REMARK INTER:                  -4.799
REMARK INTRA:                  -0.256
REMARK UNBOUND:                -0.256
REMARK  Name = 
REMARK  3 active torsions:
REMARK  status: ('A' for Active; 'I' for Inactive)
REMARK    1  A    between atoms: C_1  and  C_9
REMARK    2  A    between atoms: C_5  and  O_8
REMARK    3  A    between atoms: C_6  and  N_7
REMARK                            x       y       z     vdW  Elec       q    Type
REMARK                         _______ _______ _______ _____ _____    ______ ____
ROOT
ATOM      1  C   UNL     1      19.815 -33.860 -22.320  0.00  0.00    +0.022 A 
ATOM      2  C   UNL     1      20.561 -35.009 -22.630  0.00  0.00    +0.076 A 
ATOM      3  C   UNL     1      21.049 -35.187 -23.936  0.00  0.00    +0.138 A 
ATOM      4  C   UNL     1      20.881 -34.232 -24.924  0.00  0.00    +0.047 A 
ATOM      5  C   UNL     1      20.181 -33.069 -24.616  0.00  0.00    +0.004 A 
ATOM      6  C   UNL     1      19.652 -32.889 -23.331  0.00  0.00    +0.012 A 
ENDROOT
BRANCH   1   7
ATOM      7  C   UNL     1      19.208 -33.633 -20.951  0.00  0.00    +0.074 C 
ATOM      8  O   UNL     1      18.541 -34.584 -20.436  0.00  0.00    -0.545 OA
ATOM      9  O   UNL     1      19.418 -32.496 -20.409  0.00  0.00    -0.545 OA
ENDBRANCH   1   7
BRANCH   2  10
ATOM     10  N   UNL     1      20.650 -36.134 -21.746  0.00  0.00    -0.355 N 
ATOM     11  H   UNL     1      20.447 -35.731 -20.801  0.00  0.00    +0.142 HD
ATOM     12  H   UNL     1      19.811 -36.694 -21.905  0.00  0.00    +0.142 HD
ENDBRANCH   2  10
BRANCH   3  13
ATOM     13  O   UNL     1      21.721 -36.350 -24.214  0.00  0.00    -0.505 OA
ATOM     14  H   UNL     1      22.620 -36.007 -24.417  0.00  0.00    +0.292 HD
ENDBRANCH   3  13
TORSDOF 3
ENDMDL
