
  MJ192500                      

 11 11  0  0  0  0  0  0  0  0999 V2000
   -2.9018   -0.3356    0.0000 C   0  0  0  0  0  0  0  0  0  0  0  0
   -3.6162   -0.7481    0.0000 C   0  0  0  0  0  0  0  0  0  0  0  0
   -3.6162   -1.5732    0.0000 C   0  0  0  0  0  0  0  0  0  0  0  0
   -2.9018   -1.9857    0.0000 C   0  0  0  0  0  0  0  0  0  0  0  0
   -2.1873   -1.5732    0.0000 C   0  0  0  0  0  0  0  0  0  0  0  0
   -2.1873   -0.7481    0.0000 C   0  0  0  0  0  0  0  0  0  0  0  0
   -4.3307   -0.3356    0.0000 O   0  0  0  0  0  0  0  0  0  0  0  0
   -1.4728   -1.9857    0.0000 O   0  0  0  0  0  0  0  0  0  0  0  0
   -1.4728   -0.3356    0.0000 C   0  0  0  0  0  0  0  0  0  0  0  0
   -1.4728    0.4893    0.0000 O   0  0  0  0  0  0  0  0  0  0  0  0
   -0.7583   -0.7481    0.0000 O   0  0  0  0  0  0  0  0  0  0  0  0
  1  2  2  0  0  0  0
  2  3  1  0  0  0  0
  3  4  2  0  0  0  0
  4  5  1  0  0  0  0
  5  6  2  0  0  0  0
  6  1  1  0  0  0  0
  6  9  1  0  0  0  0
  5  8  1  0  0  0  0
  9 11  1  0  0  0  0
  9 10  2  0  0  0  0
  2  7  1  0  0  0  0
M  END
