MODEL 1
REMARK VINA RESULT:    -4.921      0.000      0.000
REMARK INTER + INTRA:          -5.734
REMARK INTER:                  -5.466
REMARK INTRA:                  -0.268
REMARK UNBOUND:                -0.238
REMARK  Name = 
REMARK  3 active torsions:
REMARK  status: ('A' for Active; 'I' for Inactive)
REMARK    1  A    between atoms: C_2  and  O_7
REMARK    2  A    between atoms: C_5  and  O_8
REMARK    3  A    between atoms: C_6  and  C_9
REMARK                            x       y       z     vdW  Elec       q    Type
REMARK                         _______ _______ _______ _____ _____    ______ ____
ROOT
ATOM      1  C   UNL     1      19.940 -34.799 -19.581  0.00  0.00    +0.058 A 
ATOM      2  C   UNL     1      19.127 -33.707 -19.230  0.00  0.00    +0.042 A 
ATOM      3  C   UNL     1      18.637 -32.893 -20.263  0.00  0.00    +0.126 A 
ATOM      4  C   UNL     1      18.940 -33.150 -21.599  0.00  0.00    +0.049 A 
ATOM      5  C   UNL     1      19.748 -34.237 -21.929  0.00  0.00    +0.049 A 
ATOM      6  C   UNL     1      20.241 -35.053 -20.918  0.00  0.00    +0.118 A 
ENDROOT
BRANCH   2   7
ATOM      7  C   UNL     1      18.801 -33.434 -17.784  0.00  0.00    +0.075 C 
ATOM      8  O   UNL     1      17.558 -33.345 -17.504  0.00  0.00    -0.545 OA
ATOM      9  O   UNL     1      19.767 -33.315 -16.969  0.00  0.00    -0.545 OA
ENDBRANCH   2   7
BRANCH   3  10
ATOM     10  O   UNL     1      17.837 -31.808 -20.005  0.00  0.00    -0.506 OA
ATOM     11  H   UNL     1      16.911 -32.174 -19.956  0.00  0.00    +0.292 HD
ENDBRANCH   3  10
BRANCH   6  12
ATOM     12  O   UNL     1      21.030 -36.110 -21.269  0.00  0.00    -0.507 OA
ATOM     13  H   UNL     1      21.364 -35.924 -22.163  0.00  0.00    +0.292 HD
ENDBRANCH   6  12
TORSDOF 3
ENDMDL
MODEL 2
REMARK VINA RESULT:    -4.606      1.741      2.771
REMARK INTER + INTRA:          -5.383
REMARK INTER:                  -5.127
REMARK INTRA:                  -0.256
REMARK UNBOUND:                -0.238
REMARK  Name = 
REMARK  3 active torsions:
REMARK  status: ('A' for Active; 'I' for Inactive)
REMARK    1  A    between atoms: C_2  and  O_7
REMARK    2  A    between atoms: C_5  and  O_8
REMARK    3  A    between atoms: C_6  and  C_9
REMARK                            x       y       z     vdW  Elec       q    Type
REMARK                         _______ _______ _______ _____ _____    ______ ____
ROOT
ATOM      1  C   UNL     1      20.246 -35.341 -20.157  0.00  0.00    +0.058 A 
ATOM      2  C   UNL     1      20.346 -34.939 -18.813  0.00  0.00    +0.042 A 
ATOM      3  C   UNL     1      19.889 -33.656 -18.474  0.00  0.00    +0.126 A 
ATOM      4  C   UNL     1      19.350 -32.798 -19.432  0.00  0.00    +0.049 A 
ATOM      5  C   UNL     1      19.257 -33.214 -20.759  0.00  0.00    +0.049 A 
ATOM      6  C   UNL     1      19.706 -34.481 -21.111  0.00  0.00    +0.118 A 
ENDROOT
BRANCH   2   7
ATOM      7  C   UNL     1      20.929 -35.870 -17.781  0.00  0.00    +0.075 C 
ATOM      8  O   UNL     1      21.960 -36.528 -18.150  0.00  0.00    -0.545 OA
ATOM      9  O   UNL     1      20.364 -35.929 -16.647  0.00  0.00    -0.545 OA
ENDBRANCH   2   7
BRANCH   3  10
ATOM     10  O   UNL     1      19.952 -33.188 -17.186  0.00  0.00    -0.506 OA
ATOM     11  H   UNL     1      20.827 -33.510 -16.835  0.00  0.00    +0.292 HD
ENDBRANCH   3  10
BRANCH   6  12
ATOM     12  O   UNL     1      19.604 -34.862 -22.419  0.00  0.00    -0.507 OA
ATOM     13  H   UNL     1      19.074 -34.181 -22.867  0.00  0.00    +0.292 HD
ENDBRANCH   6  12
TORSDOF 3
ENDMDL
MODEL 3
REMARK VINA RESULT:    -4.548      1.238      3.226
REMARK INTER + INTRA:          -5.318
REMARK INTER:                  -5.080
REMARK INTRA:                  -0.238
REMARK UNBOUND:                -0.238
REMARK  Name = 
REMARK  3 active torsions:
REMARK  status: ('A' for Active; 'I' for Inactive)
REMARK    1  A    between atoms: C_2  and  O_7
REMARK    2  A    between atoms: C_5  and  O_8
REMARK    3  A    between atoms: C_6  and  C_9
REMARK                            x       y       z     vdW  Elec       q    Type
REMARK                         _______ _______ _______ _____ _____    ______ ____
ROOT
ATOM      1  C   UNL     1      19.173 -33.556 -19.110  0.00  0.00    +0.058 A 
ATOM      2  C   UNL     1      20.003 -34.664 -19.353  0.00  0.00    +0.042 A 
ATOM      3  C   UNL     1      20.241 -35.027 -20.688  0.00  0.00    +0.126 A 
ATOM      4  C   UNL     1      19.679 -34.317 -21.748  0.00  0.00    +0.049 A 
ATOM      5  C   UNL     1      18.859 -33.221 -21.488  0.00  0.00    +0.049 A 
ATOM      6  C   UNL     1      18.612 -32.848 -20.172  0.00  0.00    +0.118 A 
ENDROOT
BRANCH   2   7
ATOM      7  C   UNL     1      20.609 -35.428 -18.204  0.00  0.00    +0.075 C 
ATOM      8  O   UNL     1      19.893 -35.499 -17.149  0.00  0.00    -0.545 OA
ATOM      9  O   UNL     1      21.762 -35.933 -18.368  0.00  0.00    -0.545 OA
ENDBRANCH   2   7
BRANCH   3  10
ATOM     10  O   UNL     1      21.039 -36.096 -21.010  0.00  0.00    -0.506 OA
ATOM     11  H   UNL     1      21.056 -36.116 -22.007  0.00  0.00    +0.292 HD
ENDBRANCH   3  10
BRANCH   6  12
ATOM     12  O   UNL     1      17.805 -31.770 -19.947  0.00  0.00    -0.507 OA
ATOM     13  H   UNL     1      18.307 -30.984 -20.221  0.00  0.00    +0.292 HD
ENDBRANCH   6  12
TORSDOF 3
ENDMDL
MODEL 4
REMARK VINA RESULT:    -4.508      2.371      4.928
REMARK INTER + INTRA:          -5.274
REMARK INTER:                  -5.008
REMARK INTRA:                  -0.266
REMARK UNBOUND:                -0.238
REMARK  Name = 
REMARK  3 active torsions:
REMARK  status: ('A' for Active; 'I' for Inactive)
REMARK    1  A    between atoms: C_2  and  O_7
REMARK    2  A    between atoms: C_5  and  O_8
REMARK    3  A    between atoms: C_6  and  C_9
REMARK                            x       y       z     vdW  Elec       q    Type
REMARK                         _______ _______ _______ _____ _____    ______ ____
ROOT
ATOM      1  C   UNL     1      19.141 -32.889 -21.691  0.00  0.00    +0.058 A 
ATOM      2  C   UNL     1      19.490 -33.711 -22.777  0.00  0.00    +0.042 A 
ATOM      3  C   UNL     1      20.058 -34.964 -22.498  0.00  0.00    +0.126 A 
ATOM      4  C   UNL     1      20.274 -35.391 -21.189  0.00  0.00    +0.049 A 
ATOM      5  C   UNL     1      19.921 -34.563 -20.125  0.00  0.00    +0.049 A 
ATOM      6  C   UNL     1      19.358 -33.319 -20.384  0.00  0.00    +0.118 A 
ENDROOT
BRANCH   2   7
ATOM      7  C   UNL     1      19.254 -33.245 -24.191  0.00  0.00    +0.075 C 
ATOM      8  O   UNL     1      20.289 -33.196 -24.937  0.00  0.00    -0.545 OA
ATOM      9  O   UNL     1      18.068 -32.942 -24.528  0.00  0.00    -0.545 OA
ENDBRANCH   2   7
BRANCH   3  10
ATOM     10  O   UNL     1      20.426 -35.825 -23.501  0.00  0.00    -0.506 OA
ATOM     11  H   UNL     1      20.936 -35.265 -24.150  0.00  0.00    +0.292 HD
ENDBRANCH   3  10
BRANCH   6  12
ATOM     12  O   UNL     1      19.023 -32.528 -19.322  0.00  0.00    -0.507 OA
ATOM     13  H   UNL     1      18.113 -32.766 -19.073  0.00  0.00    +0.292 HD
ENDBRANCH   6  12
TORSDOF 3
ENDMDL
MODEL 5
REMARK VINA RESULT:    -4.330      1.580      3.851
REMARK INTER + INTRA:          -5.074
REMARK INTER:                  -4.808
REMARK INTRA:                  -0.266
REMARK UNBOUND:                -0.238
REMARK  Name = 
REMARK  3 active torsions:
REMARK  status: ('A' for Active; 'I' for Inactive)
REMARK    1  A    between atoms: C_2  and  O_7
REMARK    2  A    between atoms: C_5  and  O_8
REMARK    3  A    between atoms: C_6  and  C_9
REMARK                            x       y       z     vdW  Elec       q    Type
REMARK                         _______ _______ _______ _____ _____    ______ ____
ROOT
ATOM      1  C   UNL     1      20.334 -35.147 -19.731  0.00  0.00    +0.058 A 
ATOM      2  C   UNL     1      19.864 -34.772 -21.002  0.00  0.00    +0.042 A 
ATOM      3  C   UNL     1      19.078 -33.613 -21.098  0.00  0.00    +0.126 A 
ATOM      4  C   UNL     1      18.767 -32.849 -19.975  0.00  0.00    +0.049 A 
ATOM      5  C   UNL     1      19.241 -33.235 -18.722  0.00  0.00    +0.049 A 
ATOM      6  C   UNL     1      20.020 -34.380 -18.610  0.00  0.00    +0.118 A 
ENDROOT
BRANCH   2   7
ATOM      7  C   UNL     1      20.205 -35.602 -22.213  0.00  0.00    +0.075 C 
ATOM      8  O   UNL     1      20.824 -34.989 -23.147  0.00  0.00    -0.545 OA
ATOM      9  O   UNL     1      19.858 -36.822 -22.215  0.00  0.00    -0.545 OA
ENDBRANCH   2   7
BRANCH   3  10
ATOM     10  O   UNL     1      18.582 -33.180 -22.302  0.00  0.00    -0.506 OA
ATOM     11  H   UNL     1      17.637 -33.499 -22.323  0.00  0.00    +0.292 HD
ENDBRANCH   3  10
BRANCH   6  12
ATOM     12  O   UNL     1      20.470 -34.735 -17.370  0.00  0.00    -0.507 OA
ATOM     13  H   UNL     1      21.075 -35.486 -17.498  0.00  0.00    +0.292 HD
ENDBRANCH   6  12
TORSDOF 3
ENDMDL
MODEL 6
REMARK VINA RESULT:    -4.317      1.510      2.491
REMARK INTER + INTRA:          -5.060
REMARK INTER:                  -4.797
REMARK INTRA:                  -0.263
REMARK UNBOUND:                -0.238
REMARK  Name = 
REMARK  3 active torsions:
REMARK  status: ('A' for Active; 'I' for Inactive)
REMARK    1  A    between atoms: C_2  and  O_7
REMARK    2  A    between atoms: C_5  and  O_8
REMARK    3  A    between atoms: C_6  and  C_9
REMARK                            x       y       z     vdW  Elec       q    Type
REMARK                         _______ _______ _______ _____ _____    ______ ____
ROOT
ATOM      1  C   UNL     1      19.122 -33.337 -20.681  0.00  0.00    +0.058 A 
ATOM      2  C   UNL     1      19.448 -33.997 -19.483  0.00  0.00    +0.042 A 
ATOM      3  C   UNL     1      20.232 -35.158 -19.564  0.00  0.00    +0.126 A 
ATOM      4  C   UNL     1      20.679 -35.651 -20.789  0.00  0.00    +0.049 A 
ATOM      5  C   UNL     1      20.347 -34.984 -21.967  0.00  0.00    +0.049 A 
ATOM      6  C   UNL     1      19.571 -33.832 -21.904  0.00  0.00    +0.118 A 
ENDROOT
BRANCH   2   7
ATOM      7  C   UNL     1      18.962 -33.460 -18.162  0.00  0.00    +0.075 C 
ATOM      8  O   UNL     1      17.734 -33.110 -18.124  0.00  0.00    -0.545 OA
ATOM      9  O   UNL     1      19.792 -33.397 -17.204  0.00  0.00    -0.545 OA
ENDBRANCH   2   7
BRANCH   3  10
ATOM     10  O   UNL     1      20.594 -35.861 -18.443  0.00  0.00    -0.506 OA
ATOM     11  H   UNL     1      19.756 -36.302 -18.131  0.00  0.00    +0.292 HD
ENDBRANCH   3  10
BRANCH   6  12
ATOM     12  O   UNL     1      19.259 -33.199 -23.073  0.00  0.00    -0.507 OA
ATOM     13  H   UNL     1      19.292 -33.874 -23.772  0.00  0.00    +0.292 HD
ENDBRANCH   6  12
TORSDOF 3
ENDMDL
MODEL 7
REMARK VINA RESULT:    -4.275      2.353      3.488
REMARK INTER + INTRA:          -5.013
REMARK INTER:                  -4.748
REMARK INTRA:                  -0.265
REMARK UNBOUND:                -0.238
REMARK  Name = 
REMARK  3 active torsions:
REMARK  status: ('A' for Active; 'I' for Inactive)
REMARK    1  A    between atoms: C_2  and  O_7
REMARK    2  A    between atoms: C_5  and  O_8
REMARK    3  A    between atoms: C_6  and  C_9
REMARK                            x       y       z     vdW  Elec       q    Type
REMARK                         _______ _______ _______ _____ _____    ______ ____
ROOT
ATOM      1  C   UNL     1      21.162 -35.175 -23.035  0.00  0.00    +0.058 A 
ATOM      2  C   UNL     1      20.149 -34.660 -22.205  0.00  0.00    +0.042 A 
ATOM      3  C   UNL     1      19.392 -33.580 -22.684  0.00  0.00    +0.126 A 
ATOM      4  C   UNL     1      19.627 -33.026 -23.942  0.00  0.00    +0.049 A 
ATOM      5  C   UNL     1      20.635 -33.549 -24.751  0.00  0.00    +0.049 A 
ATOM      6  C   UNL     1      21.394 -34.619 -24.291  0.00  0.00    +0.118 A 
ENDROOT
BRANCH   2   7
ATOM      7  C   UNL     1      19.899 -35.263 -20.847  0.00  0.00    +0.075 C 
ATOM      8  O   UNL     1      20.011 -34.463 -19.858  0.00  0.00    -0.545 OA
ATOM      9  O   UNL     1      19.601 -36.495 -20.788  0.00  0.00    -0.545 OA
ENDBRANCH   2   7
BRANCH   3  10
ATOM     10  O   UNL     1      18.387 -33.020 -21.937  0.00  0.00    -0.506 OA
ATOM     11  H   UNL     1      18.707 -33.066 -20.994  0.00  0.00    +0.292 HD
ENDBRANCH   3  10
BRANCH   6  12
ATOM     12  O   UNL     1      22.375 -35.110 -25.104  0.00  0.00    -0.507 OA
ATOM     13  H   UNL     1      23.130 -34.503 -25.027  0.00  0.00    +0.292 HD
ENDBRANCH   6  12
TORSDOF 3
ENDMDL
MODEL 8
REMARK VINA RESULT:    -4.008      3.045      5.509
REMARK INTER + INTRA:          -4.715
REMARK INTER:                  -4.461
REMARK INTRA:                  -0.254
REMARK UNBOUND:                -0.238
REMARK  Name = 
REMARK  3 active torsions:
REMARK  status: ('A' for Active; 'I' for Inactive)
REMARK    1  A    between atoms: C_2  and  O_7
REMARK    2  A    between atoms: C_5  and  O_8
REMARK    3  A    between atoms: C_6  and  C_9
REMARK                            x       y       z     vdW  Elec       q    Type
REMARK                         _______ _______ _______ _____ _____    ______ ____
ROOT
ATOM      1  C   UNL     1      21.090 -35.318 -22.653  0.00  0.00    +0.058 A 
ATOM      2  C   UNL     1      20.953 -34.693 -23.905  0.00  0.00    +0.042 A 
ATOM      3  C   UNL     1      19.985 -33.685 -24.035  0.00  0.00    +0.126 A 
ATOM      4  C   UNL     1      19.179 -33.306 -22.962  0.00  0.00    +0.049 A 
ATOM      5  C   UNL     1      19.329 -33.936 -21.728  0.00  0.00    +0.049 A 
ATOM      6  C   UNL     1      20.283 -34.937 -21.582  0.00  0.00    +0.118 A 
ENDROOT
BRANCH   2   7
ATOM      7  C   UNL     1      21.826 -35.106 -25.061  0.00  0.00    +0.075 C 
ATOM      8  O   UNL     1      23.081 -34.934 -24.896  0.00  0.00    -0.545 OA
ATOM      9  O   UNL     1      21.262 -35.585 -26.092  0.00  0.00    -0.545 OA
ENDBRANCH   2   7
BRANCH   3  10
ATOM     10  O   UNL     1      19.788 -33.027 -25.222  0.00  0.00    -0.506 OA
ATOM     11  H   UNL     1      19.897 -33.724 -25.927  0.00  0.00    +0.292 HD
ENDBRANCH   3  10
BRANCH   6  12
ATOM     12  O   UNL     1      20.408 -35.537 -20.363  0.00  0.00    -0.507 OA
ATOM     13  H   UNL     1      20.952 -34.945 -19.815  0.00  0.00    +0.292 HD
ENDBRANCH   6  12
TORSDOF 3
ENDMDL
MODEL 9
REMARK VINA RESULT:    -3.861      9.815     11.595
REMARK INTER + INTRA:          -4.551
REMARK INTER:                  -4.313
REMARK INTRA:                  -0.238
REMARK UNBOUND:                -0.238
REMARK  Name = 
REMARK  3 active torsions:
REMARK  status: ('A' for Active; 'I' for Inactive)
REMARK    1  A    between atoms: C_2  and  O_7
REMARK    2  A    between atoms: C_5  and  O_8
REMARK    3  A    between atoms: C_6  and  C_9
REMARK                            x       y       z     vdW  Elec       q    Type
REMARK                         _______ _______ _______ _____ _____    ______ ____
ROOT
ATOM      1  C   UNL     1      26.909 -33.599 -25.894  0.00  0.00    +0.058 A 
ATOM      2  C   UNL     1      27.373 -34.483 -26.884  0.00  0.00    +0.042 A 
ATOM      3  C   UNL     1      28.746 -34.772 -26.916  0.00  0.00    +0.126 A 
ATOM      4  C   UNL     1      29.632 -34.206 -26.000  0.00  0.00    +0.049 A 
ATOM      5  C   UNL     1      29.154 -33.332 -25.025  0.00  0.00    +0.049 A 
ATOM      6  C   UNL     1      27.797 -33.035 -24.979  0.00  0.00    +0.118 A 
ENDROOT
BRANCH   2   7
ATOM      7  C   UNL     1      26.412 -35.092 -27.871  0.00  0.00    +0.075 C 
ATOM      8  O   UNL     1      26.849 -35.216 -29.065  0.00  0.00    -0.545 OA
ATOM      9  O   UNL     1      25.262 -35.430 -27.452  0.00  0.00    -0.545 OA
ENDBRANCH   2   7
BRANCH   3  10
ATOM     10  O   UNL     1      29.279 -35.624 -27.850  0.00  0.00    -0.506 OA
ATOM     11  H   UNL     1      29.815 -35.042 -28.457  0.00  0.00    +0.292 HD
ENDBRANCH   3  10
BRANCH   6  12
ATOM     12  O   UNL     1      27.356 -32.175 -24.015  0.00  0.00    -0.507 OA
ATOM     13  H   UNL     1      26.665 -32.644 -23.518  0.00  0.00    +0.292 HD
ENDBRANCH   6  12
TORSDOF 3
ENDMDL
