MODEL 1
REMARK VINA RESULT:    -5.885      0.000      0.000
REMARK INTER + INTRA:          -7.306
REMARK INTER:                  -6.920
REMARK INTRA:                  -0.386
REMARK UNBOUND:                -0.390
REMARK  Name = 
REMARK  3 active torsions:
REMARK  status: ('A' for Active; 'I' for Inactive)
REMARK    1  A    between atoms: C_2  and  O_7
REMARK    2  A    between atoms: C_6  and  C_12
REMARK    3  A    between atoms: O_7  and  C_8
REMARK                            x       y       z     vdW  Elec       q    Type
REMARK                         _______ _______ _______ _____ _____    ______ ____
ROOT
ATOM      1  C   UNL     1      18.983 -33.447 -21.381  0.00  0.00    +0.055 A 
ATOM      2  C   UNL     1      19.516 -33.978 -20.189  0.00  0.00    +0.001 A 
ATOM      3  C   UNL     1      20.379 -35.082 -20.272  0.00  0.00    +0.010 A 
ATOM      4  C   UNL     1      20.701 -35.645 -21.505  0.00  0.00    +0.004 A 
ATOM      5  C   UNL     1      20.163 -35.106 -22.672  0.00  0.00    +0.046 A 
ATOM      6  C   UNL     1      19.302 -34.006 -22.620  0.00  0.00    +0.131 A 
ENDROOT
BRANCH   2   7
ATOM      7  C   UNL     1      19.167 -33.367 -18.845  0.00  0.00    +0.072 C 
ATOM      8  O   UNL     1      20.060 -33.412 -17.941  0.00  0.00    -0.545 OA
ATOM      9  O   UNL     1      18.009 -32.857 -18.724  0.00  0.00    -0.545 OA
ENDBRANCH   2   7
BRANCH   6  10
ATOM     10  O   UNL     1      18.852 -33.585 -23.839  0.00  0.00    -0.406 OA
BRANCH  10  11
ATOM     11  C   UNL     1      19.776 -32.929 -24.689  0.00  0.00    +0.575 C 
ATOM     12  F   UNL     1      19.078 -32.090 -25.495  0.00  0.00    -0.133 F 
ATOM     13  F   UNL     1      20.431 -33.799 -25.484  0.00  0.00    -0.133 F 
ATOM     14  F   UNL     1      20.652 -32.178 -23.988  0.00  0.00    -0.133 F 
ENDBRANCH  10  11
ENDBRANCH   6  10
TORSDOF 3
ENDMDL
MODEL 2
REMARK VINA RESULT:    -5.408      3.061      4.934
REMARK INTER + INTRA:          -6.747
REMARK INTER:                  -6.366
REMARK INTRA:                  -0.380
REMARK UNBOUND:                -0.390
REMARK  Name = 
REMARK  3 active torsions:
REMARK  status: ('A' for Active; 'I' for Inactive)
REMARK    1  A    between atoms: C_2  and  O_7
REMARK    2  A    between atoms: C_6  and  C_12
REMARK    3  A    between atoms: O_7  and  C_8
REMARK                            x       y       z     vdW  Elec       q    Type
REMARK                         _______ _______ _______ _____ _____    ______ ____
ROOT
ATOM      1  C   UNL     1      20.475 -34.692 -22.588  0.00  0.00    +0.055 A 
ATOM      2  C   UNL     1      21.226 -34.690 -23.781  0.00  0.00    +0.001 A 
ATOM      3  C   UNL     1      20.840 -33.825 -24.816  0.00  0.00    +0.010 A 
ATOM      4  C   UNL     1      19.736 -32.986 -24.672  0.00  0.00    +0.004 A 
ATOM      5  C   UNL     1      19.006 -33.004 -23.485  0.00  0.00    +0.046 A 
ATOM      6  C   UNL     1      19.369 -33.855 -22.436  0.00  0.00    +0.131 A 
ENDROOT
BRANCH   2   7
ATOM      7  C   UNL     1      22.427 -35.602 -23.941  0.00  0.00    +0.072 C 
ATOM      8  O   UNL     1      23.292 -35.270 -24.812  0.00  0.00    -0.545 OA
ATOM      9  O   UNL     1      22.480 -36.629 -23.193  0.00  0.00    -0.545 OA
ENDBRANCH   2   7
BRANCH   6  10
ATOM     10  O   UNL     1      18.564 -33.765 -21.335  0.00  0.00    -0.406 OA
BRANCH  10  11
ATOM     11  C   UNL     1      19.093 -33.129 -20.186  0.00  0.00    +0.575 C 
ATOM     12  F   UNL     1      19.757 -32.017 -20.594  0.00  0.00    -0.133 F 
ATOM     13  F   UNL     1      19.981 -33.914 -19.542  0.00  0.00    -0.133 F 
ATOM     14  F   UNL     1      18.118 -32.729 -19.343  0.00  0.00    -0.133 F 
ENDBRANCH  10  11
ENDBRANCH   6  10
TORSDOF 3
ENDMDL
MODEL 3
REMARK VINA RESULT:    -5.371      3.190      5.084
REMARK INTER + INTRA:          -6.703
REMARK INTER:                  -6.316
REMARK INTRA:                  -0.387
REMARK UNBOUND:                -0.390
REMARK  Name = 
REMARK  3 active torsions:
REMARK  status: ('A' for Active; 'I' for Inactive)
REMARK    1  A    between atoms: C_2  and  O_7
REMARK    2  A    between atoms: C_6  and  C_12
REMARK    3  A    between atoms: O_7  and  C_8
REMARK                            x       y       z     vdW  Elec       q    Type
REMARK                         _______ _______ _______ _____ _____    ______ ____
ROOT
ATOM      1  C   UNL     1      19.149 -33.189 -21.641  0.00  0.00    +0.055 A 
ATOM      2  C   UNL     1      19.626 -33.810 -22.813  0.00  0.00    +0.001 A 
ATOM      3  C   UNL     1      20.360 -35.001 -22.692  0.00  0.00    +0.010 A 
ATOM      4  C   UNL     1      20.615 -35.558 -21.441  0.00  0.00    +0.004 A 
ATOM      5  C   UNL     1      20.135 -34.928 -20.294  0.00  0.00    +0.046 A 
ATOM      6  C   UNL     1      19.400 -33.742 -20.384  0.00  0.00    +0.131 A 
ENDROOT
BRANCH   2   7
ATOM      7  C   UNL     1      19.350 -33.206 -24.177  0.00  0.00    +0.072 C 
ATOM      8  O   UNL     1      18.134 -32.985 -24.476  0.00  0.00    -0.545 OA
ATOM      9  O   UNL     1      20.355 -32.965 -24.918  0.00  0.00    -0.545 OA
ENDBRANCH   2   7
BRANCH   6  10
ATOM     10  O   UNL     1      18.994 -33.238 -19.180  0.00  0.00    -0.406 OA
BRANCH  10  11
ATOM     11  C   UNL     1      17.659 -33.491 -18.780  0.00  0.00    +0.575 C 
ATOM     12  F   UNL     1      17.583 -33.296 -17.439  0.00  0.00    -0.133 F 
ATOM     13  F   UNL     1      17.296 -34.766 -19.022  0.00  0.00    -0.133 F 
ATOM     14  F   UNL     1      16.793 -32.635 -19.362  0.00  0.00    -0.133 F 
ENDBRANCH  10  11
ENDBRANCH   6  10
TORSDOF 3
ENDMDL
MODEL 4
REMARK VINA RESULT:    -5.109      1.727      2.561
REMARK INTER + INTRA:          -6.395
REMARK INTER:                  -6.007
REMARK INTRA:                  -0.388
REMARK UNBOUND:                -0.390
REMARK  Name = 
REMARK  3 active torsions:
REMARK  status: ('A' for Active; 'I' for Inactive)
REMARK    1  A    between atoms: C_2  and  O_7
REMARK    2  A    between atoms: C_6  and  C_12
REMARK    3  A    between atoms: O_7  and  C_8
REMARK                            x       y       z     vdW  Elec       q    Type
REMARK                         _______ _______ _______ _____ _____    ______ ____
ROOT
ATOM      1  C   UNL     1      20.271 -35.407 -21.628  0.00  0.00    +0.055 A 
ATOM      2  C   UNL     1      20.245 -35.169 -20.240  0.00  0.00    +0.001 A 
ATOM      3  C   UNL     1      19.689 -33.967 -19.775  0.00  0.00    +0.010 A 
ATOM      4  C   UNL     1      19.174 -33.027 -20.665  0.00  0.00    +0.004 A 
ATOM      5  C   UNL     1      19.209 -33.282 -22.035  0.00  0.00    +0.046 A 
ATOM      6  C   UNL     1      19.756 -34.471 -22.527  0.00  0.00    +0.131 A 
ENDROOT
BRANCH   2   7
ATOM      7  C   UNL     1      20.805 -36.190 -19.268  0.00  0.00    +0.072 C 
ATOM      8  O   UNL     1      21.082 -35.781 -18.096  0.00  0.00    -0.545 OA
ATOM      9  O   UNL     1      20.955 -37.377 -19.697  0.00  0.00    -0.545 OA
ENDBRANCH   2   7
BRANCH   6  10
ATOM     10  O   UNL     1      19.723 -34.585 -23.888  0.00  0.00    -0.406 OA
BRANCH  10  11
ATOM     11  C   UNL     1      20.799 -34.025 -24.619  0.00  0.00    +0.575 C 
ATOM     12  F   UNL     1      20.867 -34.663 -25.815  0.00  0.00    -0.133 F 
ATOM     13  F   UNL     1      21.980 -34.211 -23.996  0.00  0.00    -0.133 F 
ATOM     14  F   UNL     1      20.601 -32.714 -24.873  0.00  0.00    -0.133 F 
ENDBRANCH  10  11
ENDBRANCH   6  10
TORSDOF 3
ENDMDL
MODEL 5
REMARK VINA RESULT:    -5.030      2.715      3.664
REMARK INTER + INTRA:          -6.302
REMARK INTER:                  -5.938
REMARK INTRA:                  -0.363
REMARK UNBOUND:                -0.390
REMARK  Name = 
REMARK  3 active torsions:
REMARK  status: ('A' for Active; 'I' for Inactive)
REMARK    1  A    between atoms: C_2  and  O_7
REMARK    2  A    between atoms: C_6  and  C_12
REMARK    3  A    between atoms: O_7  and  C_8
REMARK                            x       y       z     vdW  Elec       q    Type
REMARK                         _______ _______ _______ _____ _____    ______ ____
ROOT
ATOM      1  C   UNL     1      20.135 -35.094 -22.772  0.00  0.00    +0.055 A 
ATOM      2  C   UNL     1      19.723 -33.817 -22.342  0.00  0.00    +0.001 A 
ATOM      3  C   UNL     1      19.774 -32.752 -23.255  0.00  0.00    +0.010 A 
ATOM      4  C   UNL     1      20.224 -32.951 -24.558  0.00  0.00    +0.004 A 
ATOM      5  C   UNL     1      20.627 -34.221 -24.964  0.00  0.00    +0.046 A 
ATOM      6  C   UNL     1      20.586 -35.301 -24.076  0.00  0.00    +0.131 A 
ENDROOT
BRANCH   2   7
ATOM      7  C   UNL     1      19.233 -33.598 -20.923  0.00  0.00    +0.072 C 
ATOM      8  O   UNL     1      19.474 -32.466 -20.397  0.00  0.00    -0.545 OA
ATOM      9  O   UNL     1      18.618 -34.561 -20.367  0.00  0.00    -0.545 OA
ENDBRANCH   2   7
BRANCH   6  10
ATOM     10  O   UNL     1      21.011 -36.485 -24.610  0.00  0.00    -0.406 OA
BRANCH  10  11
ATOM     11  C   UNL     1      20.036 -37.323 -25.205  0.00  0.00    +0.575 C 
ATOM     12  F   UNL     1      19.933 -36.979 -26.513  0.00  0.00    -0.133 F 
ATOM     13  F   UNL     1      18.820 -37.152 -24.647  0.00  0.00    -0.133 F 
ATOM     14  F   UNL     1      20.398 -38.622 -25.157  0.00  0.00    -0.133 F 
ENDBRANCH  10  11
ENDBRANCH   6  10
TORSDOF 3
ENDMDL
MODEL 6
REMARK VINA RESULT:    -4.858      2.533      3.385
REMARK INTER + INTRA:          -6.099
REMARK INTER:                  -5.708
REMARK INTRA:                  -0.391
REMARK UNBOUND:                -0.390
REMARK  Name = 
REMARK  3 active torsions:
REMARK  status: ('A' for Active; 'I' for Inactive)
REMARK    1  A    between atoms: C_2  and  O_7
REMARK    2  A    between atoms: C_6  and  C_12
REMARK    3  A    between atoms: O_7  and  C_8
REMARK                            x       y       z     vdW  Elec       q    Type
REMARK                         _______ _______ _______ _____ _____    ______ ____
ROOT
ATOM      1  C   UNL     1      20.256 -35.233 -20.126  0.00  0.00    +0.055 A 
ATOM      2  C   UNL     1      19.743 -34.192 -19.327  0.00  0.00    +0.001 A 
ATOM      3  C   UNL     1      19.206 -33.060 -19.960  0.00  0.00    +0.010 A 
ATOM      4  C   UNL     1      19.182 -32.965 -21.350  0.00  0.00    +0.004 A 
ATOM      5  C   UNL     1      19.694 -34.005 -22.123  0.00  0.00    +0.046 A 
ATOM      6  C   UNL     1      20.234 -35.145 -21.519  0.00  0.00    +0.131 A 
ENDROOT
BRANCH   2   7
ATOM      7  C   UNL     1      19.769 -34.293 -17.813  0.00  0.00    +0.072 C 
ATOM      8  O   UNL     1      20.119 -35.409 -17.315  0.00  0.00    -0.545 OA
ATOM      9  O   UNL     1      19.439 -33.255 -17.158  0.00  0.00    -0.545 OA
ENDBRANCH   2   7
BRANCH   6  10
ATOM     10  O   UNL     1      20.698 -36.081 -22.399  0.00  0.00    -0.406 OA
BRANCH  10  11
ATOM     11  C   UNL     1      19.773 -37.034 -22.892  0.00  0.00    +0.575 C 
ATOM     12  F   UNL     1      20.469 -38.139 -23.259  0.00  0.00    -0.133 F 
ATOM     13  F   UNL     1      19.125 -36.584 -23.986  0.00  0.00    -0.133 F 
ATOM     14  F   UNL     1      18.891 -37.410 -21.942  0.00  0.00    -0.133 F 
ENDBRANCH  10  11
ENDBRANCH   6  10
TORSDOF 3
ENDMDL
MODEL 7
REMARK VINA RESULT:    -4.684      4.486      6.340
REMARK INTER + INTRA:          -5.895
REMARK INTER:                  -5.523
REMARK INTRA:                  -0.372
REMARK UNBOUND:                -0.390
REMARK  Name = 
REMARK  3 active torsions:
REMARK  status: ('A' for Active; 'I' for Inactive)
REMARK    1  A    between atoms: C_2  and  O_7
REMARK    2  A    between atoms: C_6  and  C_12
REMARK    3  A    between atoms: O_7  and  C_8
REMARK                            x       y       z     vdW  Elec       q    Type
REMARK                         _______ _______ _______ _____ _____    ______ ____
ROOT
ATOM      1  C   UNL     1      23.228 -34.907 -25.051  0.00  0.00    +0.055 A 
ATOM      2  C   UNL     1      23.855 -35.471 -26.180  0.00  0.00    +0.001 A 
ATOM      3  C   UNL     1      23.125 -36.365 -26.978  0.00  0.00    +0.010 A 
ATOM      4  C   UNL     1      21.807 -36.691 -26.662  0.00  0.00    +0.004 A 
ATOM      5  C   UNL     1      21.205 -36.123 -25.541  0.00  0.00    +0.046 A 
ATOM      6  C   UNL     1      21.909 -35.228 -24.728  0.00  0.00    +0.131 A 
ENDROOT
BRANCH   2   7
ATOM      7  C   UNL     1      25.290 -35.119 -26.527  0.00  0.00    +0.072 C 
ATOM      8  O   UNL     1      25.762 -35.612 -27.599  0.00  0.00    -0.545 OA
ATOM      9  O   UNL     1      25.910 -34.357 -25.720  0.00  0.00    -0.545 OA
ENDBRANCH   2   7
BRANCH   6  10
ATOM     10  O   UNL     1      21.194 -34.751 -23.667  0.00  0.00    -0.406 OA
BRANCH  10  11
ATOM     11  C   UNL     1      20.223 -33.753 -23.925  0.00  0.00    +0.575 C 
ATOM     12  F   UNL     1      19.974 -33.102 -22.761  0.00  0.00    -0.133 F 
ATOM     13  F   UNL     1      19.057 -34.285 -24.345  0.00  0.00    -0.133 F 
ATOM     14  F   UNL     1      20.670 -32.839 -24.811  0.00  0.00    -0.133 F 
ENDBRANCH  10  11
ENDBRANCH   6  10
TORSDOF 3
ENDMDL
MODEL 8
REMARK VINA RESULT:    -4.624      2.741      3.614
REMARK INTER + INTRA:          -5.825
REMARK INTER:                  -5.394
REMARK INTRA:                  -0.431
REMARK UNBOUND:                -0.390
REMARK  Name = 
REMARK  3 active torsions:
REMARK  status: ('A' for Active; 'I' for Inactive)
REMARK    1  A    between atoms: C_2  and  O_7
REMARK    2  A    between atoms: C_6  and  C_12
REMARK    3  A    between atoms: O_7  and  C_8
REMARK                            x       y       z     vdW  Elec       q    Type
REMARK                         _______ _______ _______ _____ _____    ______ ____
ROOT
ATOM      1  C   UNL     1      20.907 -35.306 -23.034  0.00  0.00    +0.055 A 
ATOM      2  C   UNL     1      22.050 -36.050 -22.678  0.00  0.00    +0.001 A 
ATOM      3  C   UNL     1      22.956 -36.413 -23.686  0.00  0.00    +0.010 A 
ATOM      4  C   UNL     1      22.732 -36.048 -25.012  0.00  0.00    +0.004 A 
ATOM      5  C   UNL     1      21.596 -35.313 -25.344  0.00  0.00    +0.046 A 
ATOM      6  C   UNL     1      20.676 -34.936 -24.360  0.00  0.00    +0.131 A 
ENDROOT
BRANCH   2   7
ATOM      7  C   UNL     1      22.296 -36.449 -21.236  0.00  0.00    +0.072 C 
ATOM      8  O   UNL     1      21.508 -35.969 -20.361  0.00  0.00    -0.545 OA
ATOM      9  O   UNL     1      23.270 -37.234 -21.009  0.00  0.00    -0.545 OA
ENDBRANCH   2   7
BRANCH   6  10
ATOM     10  O   UNL     1      19.612 -34.220 -24.830  0.00  0.00    -0.406 OA
BRANCH  10  11
ATOM     11  C   UNL     1      19.552 -32.843 -24.501  0.00  0.00    +0.575 C 
ATOM     12  F   UNL     1      18.930 -32.728 -23.301  0.00  0.00    -0.133 F 
ATOM     13  F   UNL     1      18.827 -32.145 -25.399  0.00  0.00    -0.133 F 
ATOM     14  F   UNL     1      20.784 -32.307 -24.369  0.00  0.00    -0.133 F 
ENDBRANCH  10  11
ENDBRANCH   6  10
TORSDOF 3
ENDMDL
MODEL 9
REMARK VINA RESULT:    -4.310      2.417      3.352
REMARK INTER + INTRA:          -5.455
REMARK INTER:                  -5.065
REMARK INTRA:                  -0.390
REMARK UNBOUND:                -0.390
REMARK  Name = 
REMARK  3 active torsions:
REMARK  status: ('A' for Active; 'I' for Inactive)
REMARK    1  A    between atoms: C_2  and  O_7
REMARK    2  A    between atoms: C_6  and  C_12
REMARK    3  A    between atoms: O_7  and  C_8
REMARK                            x       y       z     vdW  Elec       q    Type
REMARK                         _______ _______ _______ _____ _____    ______ ____
ROOT
ATOM      1  C   UNL     1      20.009 -35.962 -22.752  0.00  0.00    +0.055 A 
ATOM      2  C   UNL     1      20.030 -35.080 -21.653  0.00  0.00    +0.001 A 
ATOM      3  C   UNL     1      19.644 -33.746 -21.854  0.00  0.00    +0.010 A 
ATOM      4  C   UNL     1      19.250 -33.299 -23.114  0.00  0.00    +0.004 A 
ATOM      5  C   UNL     1      19.236 -34.187 -24.188  0.00  0.00    +0.046 A 
ATOM      6  C   UNL     1      19.614 -35.522 -24.016  0.00  0.00    +0.131 A 
ENDROOT
BRANCH   2   7
ATOM      7  C   UNL     1      20.459 -35.563 -20.280  0.00  0.00    +0.072 C 
ATOM      8  O   UNL     1      20.361 -34.736 -19.320  0.00  0.00    -0.545 OA
ATOM      9  O   UNL     1      20.884 -36.758 -20.193  0.00  0.00    -0.545 OA
ENDBRANCH   2   7
BRANCH   6  10
ATOM     10  O   UNL     1      19.551 -36.275 -25.155  0.00  0.00    -0.406 OA
BRANCH  10  11
ATOM     11  C   UNL     1      20.765 -36.532 -25.838  0.00  0.00    +0.575 C 
ATOM     12  F   UNL     1      20.455 -36.990 -27.078  0.00  0.00    -0.133 F 
ATOM     13  F   UNL     1      21.492 -37.489 -25.226  0.00  0.00    -0.133 F 
ATOM     14  F   UNL     1      21.497 -35.410 -25.995  0.00  0.00    -0.133 F 
ENDBRANCH  10  11
ENDBRANCH   6  10
TORSDOF 3
ENDMDL
