
  MJ192500                      

 14 14  0  0  0  0  0  0  0  0999 V2000
   -2.4554    0.1777    0.0000 C   0  0  0  0  0  0  0  0  0  0  0  0
   -3.1698   -0.2347    0.0000 C   0  0  0  0  0  0  0  0  0  0  0  0
   -3.1698   -1.0598    0.0000 C   0  0  0  0  0  0  0  0  0  0  0  0
   -2.4554   -1.4723    0.0000 C   0  0  0  0  0  0  0  0  0  0  0  0
   -1.7409   -1.0598    0.0000 C   0  0  0  0  0  0  0  0  0  0  0  0
   -1.7409   -0.2347    0.0000 C   0  0  0  0  0  0  0  0  0  0  0  0
   -3.8842    0.1777    0.0000 O   0  0  0  0  0  0  0  0  0  0  0  0
   -4.5987   -0.2348    0.0000 C   0  0  0  0  0  0  0  0  0  0  0  0
   -5.3132    0.1776    0.0000 F   0  0  0  0  0  0  0  0  0  0  0  0
   -4.5987   -1.0598    0.0000 F   0  0  0  0  0  0  0  0  0  0  0  0
   -3.8842   -0.6472    0.0000 F   0  0  0  0  0  0  0  0  0  0  0  0
   -1.0264    0.1777    0.0000 C   0  0  0  0  0  0  0  0  0  0  0  0
   -1.0264    1.0027    0.0000 O   0  0  0  0  0  0  0  0  0  0  0  0
   -0.3119   -0.2347    0.0000 O   0  0  0  0  0  0  0  0  0  0  0  0
  1  2  2  0  0  0  0
  2  3  1  0  0  0  0
  3  4  2  0  0  0  0
  4  5  1  0  0  0  0
  5  6  2  0  0  0  0
  6  1  1  0  0  0  0
  2  7  1  0  0  0  0
  7  8  1  0  0  0  0
  8 11  1  0  0  0  0
  8 10  1  0  0  0  0
  8  9  1  0  0  0  0
  6 12  1  0  0  0  0
 12 13  2  0  0  0  0
 12 14  1  0  0  0  0
M  END
