MODEL 1
REMARK VINA RESULT:    -4.634      0.000      0.000
REMARK INTER + INTRA:          -5.446
REMARK INTER:                  -5.316
REMARK INTRA:                  -0.130
REMARK UNBOUND:                -0.135
REMARK  Name = 
REMARK  4 active torsions:
REMARK  status: ('A' for Active; 'I' for Inactive)
REMARK    1  A    between atoms: C_1  and  C_8
REMARK    2  A    between atoms: C_4  and  N_7
REMARK    3  A    between atoms: C_6  and  O_11
REMARK    4  A    between atoms: O_11  and  C_12
REMARK                            x       y       z     vdW  Elec       q    Type
REMARK                         _______ _______ _______ _____ _____    ______ ____
ROOT
ATOM      1  C   UNL     1      19.328 -33.786 -19.314  0.00  0.00    +0.039 A 
ATOM      2  C   UNL     1      20.002 -34.974 -19.623  0.00  0.00    +0.131 A 
ATOM      3  C   UNL     1      20.271 -35.289 -20.969  0.00  0.00    +0.069 A 
ATOM      4  C   UNL     1      19.889 -34.442 -22.013  0.00  0.00    +0.028 A 
ATOM      5  C   UNL     1      19.328 -33.209 -21.692  0.00  0.00    +0.023 A 
ATOM      6  C   UNL     1      19.030 -32.896 -20.364  0.00  0.00    +0.015 A 
ENDROOT
BRANCH   1   7
ATOM      7  C   UNL     1      18.881 -33.396 -17.935  0.00  0.00    +0.075 C 
ATOM      8  O   UNL     1      17.633 -33.217 -17.776  0.00  0.00    -0.545 OA
ATOM      9  O   UNL     1      19.771 -33.304 -17.035  0.00  0.00    -0.545 OA
ENDBRANCH   1   7
BRANCH   4  10
ATOM     10  N   UNL     1      20.270 -34.726 -23.336  0.00  0.00    -0.358 N 
ATOM     11  H   UNL     1      20.437 -35.718 -23.477  0.00  0.00    +0.142 HD
ATOM     12  H   UNL     1      19.618 -34.345 -24.012  0.00  0.00    +0.142 HD
ENDBRANCH   4  10
BRANCH   2  13
ATOM     13  O   UNL     1      20.454 -35.931 -18.750  0.00  0.00    -0.494 OA
ATOM     14  C   UNL     1      21.871 -36.055 -18.665  0.00  0.00    +0.277 C 
ENDBRANCH   2  13
TORSDOF 3
ENDMDL
MODEL 2
REMARK VINA RESULT:    -4.491      5.197      5.885
REMARK INTER + INTRA:          -5.281
REMARK INTER:                  -5.161
REMARK INTRA:                  -0.120
REMARK UNBOUND:                -0.135
REMARK  Name = 
REMARK  4 active torsions:
REMARK  status: ('A' for Active; 'I' for Inactive)
REMARK    1  A    between atoms: C_1  and  C_8
REMARK    2  A    between atoms: C_4  and  N_7
REMARK    3  A    between atoms: C_6  and  O_11
REMARK    4  A    between atoms: O_11  and  C_12
REMARK                            x       y       z     vdW  Elec       q    Type
REMARK                         _______ _______ _______ _____ _____    ______ ____
ROOT
ATOM      1  C   UNL     1      21.149 -34.664 -24.413  0.00  0.00    +0.039 A 
ATOM      2  C   UNL     1      19.937 -35.364 -24.459  0.00  0.00    +0.131 A 
ATOM      3  C   UNL     1      18.724 -34.651 -24.448  0.00  0.00    +0.069 A 
ATOM      4  C   UNL     1      18.690 -33.255 -24.400  0.00  0.00    +0.028 A 
ATOM      5  C   UNL     1      19.896 -32.563 -24.477  0.00  0.00    +0.023 A 
ATOM      6  C   UNL     1      21.108 -33.256 -24.459  0.00  0.00    +0.015 A 
ENDROOT
BRANCH   1   7
ATOM      7  C   UNL     1      22.500 -35.308 -24.301  0.00  0.00    +0.075 C 
ATOM      8  O   UNL     1      22.707 -36.007 -23.260  0.00  0.00    -0.545 OA
ATOM      9  O   UNL     1      23.315 -35.132 -25.258  0.00  0.00    -0.545 OA
ENDBRANCH   1   7
BRANCH   4  10
ATOM     10  N   UNL     1      17.469 -32.568 -24.506  0.00  0.00    -0.358 N 
ATOM     11  H   UNL     1      17.437 -31.755 -23.899  0.00  0.00    +0.142 HD
ATOM     12  H   UNL     1      17.240 -32.340 -25.468  0.00  0.00    +0.142 HD
ENDBRANCH   4  10
BRANCH   2  13
ATOM     13  O   UNL     1      19.758 -36.724 -24.505  0.00  0.00    -0.494 OA
ATOM     14  C   UNL     1      19.900 -37.311 -25.796  0.00  0.00    +0.277 C 
ENDBRANCH   2  13
TORSDOF 3
ENDMDL
MODEL 3
REMARK VINA RESULT:    -4.434      2.113      3.418
REMARK INTER + INTRA:          -5.217
REMARK INTER:                  -5.073
REMARK INTRA:                  -0.144
REMARK UNBOUND:                -0.135
REMARK  Name = 
REMARK  4 active torsions:
REMARK  status: ('A' for Active; 'I' for Inactive)
REMARK    1  A    between atoms: C_1  and  C_8
REMARK    2  A    between atoms: C_4  and  N_7
REMARK    3  A    between atoms: C_6  and  O_11
REMARK    4  A    between atoms: O_11  and  C_12
REMARK                            x       y       z     vdW  Elec       q    Type
REMARK                         _______ _______ _______ _____ _____    ______ ____
ROOT
ATOM      1  C   UNL     1      20.224 -35.103 -19.901  0.00  0.00    +0.039 A 
ATOM      2  C   UNL     1      19.565 -34.683 -18.738  0.00  0.00    +0.131 A 
ATOM      3  C   UNL     1      18.737 -33.547 -18.782  0.00  0.00    +0.069 A 
ATOM      4  C   UNL     1      18.543 -32.823 -19.962  0.00  0.00    +0.028 A 
ATOM      5  C   UNL     1      19.102 -33.314 -21.138  0.00  0.00    +0.023 A 
ATOM      6  C   UNL     1      19.950 -34.423 -21.104  0.00  0.00    +0.015 A 
ENDROOT
BRANCH   1   7
ATOM      7  C   UNL     1      21.222 -36.223 -19.956  0.00  0.00    +0.075 C 
ATOM      8  O   UNL     1      20.861 -37.269 -20.581  0.00  0.00    -0.545 OA
ATOM      9  O   UNL     1      22.348 -36.031 -19.404  0.00  0.00    -0.545 OA
ENDBRANCH   1   7
BRANCH   4  10
ATOM     10  N   UNL     1      17.621 -31.762 -20.003  0.00  0.00    -0.358 N 
ATOM     11  H   UNL     1      17.892 -31.050 -20.674  0.00  0.00    +0.142 HD
ATOM     12  H   UNL     1      16.671 -32.086 -20.147  0.00  0.00    +0.142 HD
ENDBRANCH   4  10
BRANCH   2  13
ATOM     13  O   UNL     1      19.627 -35.252 -17.490  0.00  0.00    -0.494 OA
ATOM     14  C   UNL     1      18.749 -36.354 -17.281  0.00  0.00    +0.277 C 
ENDBRANCH   2  13
TORSDOF 3
ENDMDL
MODEL 4
REMARK VINA RESULT:    -4.403      3.398      4.329
REMARK INTER + INTRA:          -5.181
REMARK INTER:                  -5.002
REMARK INTRA:                  -0.179
REMARK UNBOUND:                -0.135
REMARK  Name = 
REMARK  4 active torsions:
REMARK  status: ('A' for Active; 'I' for Inactive)
REMARK    1  A    between atoms: C_1  and  C_8
REMARK    2  A    between atoms: C_4  and  N_7
REMARK    3  A    between atoms: C_6  and  O_11
REMARK    4  A    between atoms: O_11  and  C_12
REMARK                            x       y       z     vdW  Elec       q    Type
REMARK                         _______ _______ _______ _____ _____    ______ ____
ROOT
ATOM      1  C   UNL     1      19.573 -33.811 -22.302  0.00  0.00    +0.039 A 
ATOM      2  C   UNL     1      20.177 -35.031 -21.969  0.00  0.00    +0.131 A 
ATOM      3  C   UNL     1      20.376 -35.358 -20.615  0.00  0.00    +0.069 A 
ATOM      4  C   UNL     1      19.982 -34.501 -19.584  0.00  0.00    +0.028 A 
ATOM      5  C   UNL     1      19.276 -33.348 -19.917  0.00  0.00    +0.023 A 
ATOM      6  C   UNL     1      19.096 -32.996 -21.256  0.00  0.00    +0.015 A 
ENDROOT
BRANCH   1   7
ATOM      7  C   UNL     1      19.413 -33.297 -23.702  0.00  0.00    +0.075 C 
ATOM      8  O   UNL     1      20.475 -32.927 -24.293  0.00  0.00    -0.545 OA
ATOM      9  O   UNL     1      18.243 -33.297 -24.196  0.00  0.00    -0.545 OA
ENDBRANCH   1   7
BRANCH   4  10
ATOM     10  N   UNL     1      20.090 -34.904 -18.242  0.00  0.00    -0.358 N 
ATOM     11  H   UNL     1      20.029 -34.117 -17.603  0.00  0.00    +0.142 HD
ATOM     12  H   UNL     1      19.433 -35.641 -18.010  0.00  0.00    +0.142 HD
ENDBRANCH   4  10
BRANCH   2  13
ATOM     13  O   UNL     1      20.633 -36.000 -22.826  0.00  0.00    -0.494 OA
ATOM     14  C   UNL     1      22.029 -35.950 -23.112  0.00  0.00    +0.277 C 
ENDBRANCH   2  13
TORSDOF 3
ENDMDL
MODEL 5
REMARK VINA RESULT:    -4.361      3.093      4.360
REMARK INTER + INTRA:          -5.133
REMARK INTER:                  -4.998
REMARK INTRA:                  -0.135
REMARK UNBOUND:                -0.135
REMARK  Name = 
REMARK  4 active torsions:
REMARK  status: ('A' for Active; 'I' for Inactive)
REMARK    1  A    between atoms: C_1  and  C_8
REMARK    2  A    between atoms: C_4  and  N_7
REMARK    3  A    between atoms: C_6  and  O_11
REMARK    4  A    between atoms: O_11  and  C_12
REMARK                            x       y       z     vdW  Elec       q    Type
REMARK                         _______ _______ _______ _____ _____    ______ ____
ROOT
ATOM      1  C   UNL     1      20.335 -35.145 -21.106  0.00  0.00    +0.039 A 
ATOM      2  C   UNL     1      19.777 -34.320 -22.092  0.00  0.00    +0.131 A 
ATOM      3  C   UNL     1      18.939 -33.255 -21.712  0.00  0.00    +0.069 A 
ATOM      4  C   UNL     1      18.651 -32.987 -20.372  0.00  0.00    +0.028 A 
ATOM      5  C   UNL     1      19.303 -33.732 -19.394  0.00  0.00    +0.023 A 
ATOM      6  C   UNL     1      20.113 -34.811 -19.755  0.00  0.00    +0.015 A 
ENDROOT
BRANCH   1   7
ATOM      7  C   UNL     1      21.143 -36.377 -21.386  0.00  0.00    +0.075 C 
ATOM      8  O   UNL     1      20.516 -37.361 -21.891  0.00  0.00    -0.545 OA
ATOM      9  O   UNL     1      22.385 -36.335 -21.126  0.00  0.00    -0.545 OA
ENDBRANCH   1   7
BRANCH   4  10
ATOM     10  N   UNL     1      17.905 -31.849 -20.018  0.00  0.00    -0.358 N 
ATOM     11  H   UNL     1      17.428 -31.969 -19.129  0.00  0.00    +0.142 HD
ATOM     12  H   UNL     1      18.464 -31.002 -20.044  0.00  0.00    +0.142 HD
ENDBRANCH   4  10
BRANCH   2  13
ATOM     13  O   UNL     1      19.934 -34.419 -23.451  0.00  0.00    -0.494 OA
ATOM     14  C   UNL     1      20.109 -33.180 -24.134  0.00  0.00    +0.277 C 
ENDBRANCH   2  13
TORSDOF 3
ENDMDL
MODEL 6
REMARK VINA RESULT:    -4.299      3.971      5.496
REMARK INTER + INTRA:          -5.062
REMARK INTER:                  -4.893
REMARK INTRA:                  -0.169
REMARK UNBOUND:                -0.135
REMARK  Name = 
REMARK  4 active torsions:
REMARK  status: ('A' for Active; 'I' for Inactive)
REMARK    1  A    between atoms: C_1  and  C_8
REMARK    2  A    between atoms: C_4  and  N_7
REMARK    3  A    between atoms: C_6  and  O_11
REMARK    4  A    between atoms: O_11  and  C_12
REMARK                            x       y       z     vdW  Elec       q    Type
REMARK                         _______ _______ _______ _____ _____    ______ ____
ROOT
ATOM      1  C   UNL     1      21.495 -34.754 -24.324  0.00  0.00    +0.039 A 
ATOM      2  C   UNL     1      21.149 -35.449 -23.158  0.00  0.00    +0.131 A 
ATOM      3  C   UNL     1      20.184 -34.906 -22.288  0.00  0.00    +0.069 A 
ATOM      4  C   UNL     1      19.551 -33.690 -22.558  0.00  0.00    +0.028 A 
ATOM      5  C   UNL     1      19.810 -33.066 -23.775  0.00  0.00    +0.023 A 
ATOM      6  C   UNL     1      20.785 -33.577 -24.634  0.00  0.00    +0.015 A 
ENDROOT
BRANCH   1   7
ATOM      7  C   UNL     1      22.587 -35.167 -25.266  0.00  0.00    +0.075 C 
ATOM      8  O   UNL     1      22.246 -35.923 -26.229  0.00  0.00    -0.545 OA
ATOM      9  O   UNL     1      23.752 -34.711 -25.049  0.00  0.00    -0.545 OA
ENDBRANCH   1   7
BRANCH   4  10
ATOM     10  N   UNL     1      18.511 -33.230 -21.731  0.00  0.00    -0.358 N 
ATOM     11  H   UNL     1      18.865 -32.781 -20.891  0.00  0.00    +0.142 HD
ATOM     12  H   UNL     1      17.854 -32.643 -22.234  0.00  0.00    +0.142 HD
ENDBRANCH   4  10
BRANCH   2  13
ATOM     13  O   UNL     1      21.654 -36.646 -22.716  0.00  0.00    -0.494 OA
ATOM     14  C   UNL     1      22.656 -36.547 -21.708  0.00  0.00    +0.277 C 
ENDBRANCH   2  13
TORSDOF 3
ENDMDL
MODEL 7
REMARK VINA RESULT:    -4.267      2.960      4.041
REMARK INTER + INTRA:          -5.025
REMARK INTER:                  -4.898
REMARK INTRA:                  -0.127
REMARK UNBOUND:                -0.135
REMARK  Name = 
REMARK  4 active torsions:
REMARK  status: ('A' for Active; 'I' for Inactive)
REMARK    1  A    between atoms: C_1  and  C_8
REMARK    2  A    between atoms: C_4  and  N_7
REMARK    3  A    between atoms: C_6  and  O_11
REMARK    4  A    between atoms: O_11  and  C_12
REMARK                            x       y       z     vdW  Elec       q    Type
REMARK                         _______ _______ _______ _____ _____    ______ ____
ROOT
ATOM      1  C   UNL     1      19.735 -34.184 -21.715  0.00  0.00    +0.039 A 
ATOM      2  C   UNL     1      19.963 -35.122 -20.700  0.00  0.00    +0.131 A 
ATOM      3  C   UNL     1      19.786 -34.746 -19.355  0.00  0.00    +0.069 A 
ATOM      4  C   UNL     1      19.379 -33.457 -18.999  0.00  0.00    +0.028 A 
ATOM      5  C   UNL     1      19.038 -32.568 -20.014  0.00  0.00    +0.023 A 
ATOM      6  C   UNL     1      19.236 -32.917 -21.351  0.00  0.00    +0.015 A 
ENDROOT
BRANCH   1   7
ATOM      7  C   UNL     1      20.001 -34.426 -23.171  0.00  0.00    +0.075 C 
ATOM      8  O   UNL     1      19.024 -34.240 -23.962  0.00  0.00    -0.545 OA
ATOM      9  O   UNL     1      21.177 -34.768 -23.503  0.00  0.00    -0.545 OA
ENDBRANCH   1   7
BRANCH   4  10
ATOM     10  N   UNL     1      19.100 -33.144 -17.657  0.00  0.00    -0.358 N 
ATOM     11  H   UNL     1      18.961 -32.148 -17.521  0.00  0.00    +0.142 HD
ATOM     12  H   UNL     1      18.332 -33.695 -17.288  0.00  0.00    +0.142 HD
ENDBRANCH   4  10
BRANCH   2  13
ATOM     13  O   UNL     1      20.367 -36.426 -20.841  0.00  0.00    -0.494 OA
ATOM     14  C   UNL     1      19.315 -37.386 -20.890  0.00  0.00    +0.277 C 
ENDBRANCH   2  13
TORSDOF 3
ENDMDL
MODEL 8
REMARK VINA RESULT:    -4.232      3.291      4.609
REMARK INTER + INTRA:          -4.985
REMARK INTER:                  -4.851
REMARK INTRA:                  -0.135
REMARK UNBOUND:                -0.135
REMARK  Name = 
REMARK  4 active torsions:
REMARK  status: ('A' for Active; 'I' for Inactive)
REMARK    1  A    between atoms: C_1  and  C_8
REMARK    2  A    between atoms: C_4  and  N_7
REMARK    3  A    between atoms: C_6  and  O_11
REMARK    4  A    between atoms: O_11  and  C_12
REMARK                            x       y       z     vdW  Elec       q    Type
REMARK                         _______ _______ _______ _____ _____    ______ ____
ROOT
ATOM      1  C   UNL     1      19.840 -33.976 -22.717  0.00  0.00    +0.039 A 
ATOM      2  C   UNL     1      19.416 -33.695 -21.411  0.00  0.00    +0.131 A 
ATOM      3  C   UNL     1      19.836 -34.521 -20.353  0.00  0.00    +0.069 A 
ATOM      4  C   UNL     1      20.676 -35.618 -20.563  0.00  0.00    +0.028 A 
ATOM      5  C   UNL     1      21.190 -35.821 -21.841  0.00  0.00    +0.023 A 
ATOM      6  C   UNL     1      20.759 -35.027 -22.906  0.00  0.00    +0.015 A 
ENDROOT
BRANCH   1   7
ATOM      7  C   UNL     1      19.369 -33.245 -23.940  0.00  0.00    +0.075 C 
ATOM      8  O   UNL     1      20.238 -32.545 -24.548  0.00  0.00    -0.545 OA
ATOM      9  O   UNL     1      18.158 -33.403 -24.287  0.00  0.00    -0.545 OA
ENDBRANCH   1   7
BRANCH   4  10
ATOM     10  N   UNL     1      21.170 -36.355 -19.474  0.00  0.00    -0.358 N 
ATOM     11  H   UNL     1      20.426 -36.815 -18.958  0.00  0.00    +0.142 HD
ATOM     12  H   UNL     1      21.903 -37.000 -19.749  0.00  0.00    +0.142 HD
ENDBRANCH   4  10
BRANCH   2  13
ATOM     13  O   UNL     1      18.595 -32.675 -21.000  0.00  0.00    -0.494 OA
ATOM     14  C   UNL     1      18.033 -32.833 -19.701  0.00  0.00    +0.277 C 
ENDBRANCH   2  13
TORSDOF 3
ENDMDL
MODEL 9
REMARK VINA RESULT:    -4.186      1.650      3.021
REMARK INTER + INTRA:          -4.932
REMARK INTER:                  -4.783
REMARK INTRA:                  -0.149
REMARK UNBOUND:                -0.135
REMARK  Name = 
REMARK  4 active torsions:
REMARK  status: ('A' for Active; 'I' for Inactive)
REMARK    1  A    between atoms: C_1  and  C_8
REMARK    2  A    between atoms: C_4  and  N_7
REMARK    3  A    between atoms: C_6  and  O_11
REMARK    4  A    between atoms: O_11  and  C_12
REMARK                            x       y       z     vdW  Elec       q    Type
REMARK                         _______ _______ _______ _____ _____    ______ ____
ROOT
ATOM      1  C   UNL     1      20.095 -34.901 -20.557  0.00  0.00    +0.039 A 
ATOM      2  C   UNL     1      19.557 -33.662 -20.931  0.00  0.00    +0.131 A 
ATOM      3  C   UNL     1      19.322 -33.392 -22.292  0.00  0.00    +0.069 A 
ATOM      4  C   UNL     1      19.604 -34.330 -23.289  0.00  0.00    +0.028 A 
ATOM      5  C   UNL     1      20.024 -35.600 -22.901  0.00  0.00    +0.023 A 
ATOM      6  C   UNL     1      20.289 -35.873 -21.558  0.00  0.00    +0.015 A 
ENDROOT
BRANCH   1   7
ATOM      7  C   UNL     1      20.498 -35.264 -19.158  0.00  0.00    +0.075 C 
ATOM      8  O   UNL     1      19.565 -35.317 -18.297  0.00  0.00    -0.545 OA
ATOM      9  O   UNL     1      21.725 -35.515 -18.948  0.00  0.00    -0.545 OA
ENDBRANCH   1   7
BRANCH   4  10
ATOM     10  N   UNL     1      19.253 -34.076 -24.626  0.00  0.00    -0.358 N 
ATOM     11  H   UNL     1      19.161 -34.933 -25.164  0.00  0.00    +0.142 HD
ATOM     12  H   UNL     1      18.433 -33.484 -24.700  0.00  0.00    +0.142 HD
ENDBRANCH   4  10
BRANCH   2  13
ATOM     13  O   UNL     1      19.218 -32.615 -20.112  0.00  0.00    -0.494 OA
ATOM     14  C   UNL     1      17.858 -32.594 -19.686  0.00  0.00    +0.277 C 
ENDBRANCH   2  13
TORSDOF 3
ENDMDL
