
  MJ192500                      

 12 12  0  0  0  0  0  0  0  0999 V2000
   -4.0402    0.6241    0.0000 C   0  0  0  0  0  0  0  0  0  0  0  0
   -4.7546    0.2116    0.0000 C   0  0  0  0  0  0  0  0  0  0  0  0
   -4.7546   -0.6134    0.0000 C   0  0  0  0  0  0  0  0  0  0  0  0
   -4.0402   -1.0259    0.0000 C   0  0  0  0  0  0  0  0  0  0  0  0
   -3.3257   -0.6134    0.0000 C   0  0  0  0  0  0  0  0  0  0  0  0
   -3.3257    0.2116    0.0000 C   0  0  0  0  0  0  0  0  0  0  0  0
   -4.0402   -1.8509    0.0000 N   0  0  0  0  0  0  0  0  0  0  0  0
   -4.0402    1.4491    0.0000 C   0  0  0  0  0  0  0  0  0  0  0  0
   -4.7547    1.8616    0.0000 O   0  0  0  0  0  0  0  0  0  0  0  0
   -3.3257    1.8616    0.0000 O   0  0  0  0  0  0  0  0  0  0  0  0
   -2.6112    0.6241    0.0000 O   0  0  0  0  0  0  0  0  0  0  0  0
   -1.7862    0.6241    0.0000 C   0  0  0  0  0  0  0  0  0  0  0  0
  1  2  2  0  0  0  0
  2  3  1  0  0  0  0
  3  4  2  0  0  0  0
  4  5  1  0  0  0  0
  5  6  2  0  0  0  0
  6  1  1  0  0  0  0
  1  8  1  0  0  0  0
  8  9  2  0  0  0  0
  8 10  1  0  0  0  0
  6 11  1  0  0  0  0
 11 12  1  0  0  0  0
  4  7  1  0  0  0  0
M  END
