
  MJ192500                      

 12 12  0  0  0  0  0  0  0  0999 V2000
   -4.1964   -0.1347    0.0000 C   0  0  0  0  0  0  0  0  0  0  0  0
   -4.9108   -0.5472    0.0000 C   0  0  0  0  0  0  0  0  0  0  0  0
   -4.9108   -1.3723    0.0000 C   0  0  0  0  0  0  0  0  0  0  0  0
   -4.1964   -1.7848    0.0000 C   0  0  0  0  0  0  0  0  0  0  0  0
   -3.4819   -1.3723    0.0000 C   0  0  0  0  0  0  0  0  0  0  0  0
   -3.4819   -0.5472    0.0000 C   0  0  0  0  0  0  0  0  0  0  0  0
   -4.1965    0.6902    0.0000 C   0  0  0  0  0  0  0  0  0  0  0  0
   -4.9109    1.1027    0.0000 O   0  0  0  0  0  0  0  0  0  0  0  0
   -3.4820    1.1027    0.0000 C   0  0  0  0  0  0  0  0  0  0  0  0
   -3.4820    1.9277    0.0000 O   0  0  0  0  0  0  0  0  0  0  0  0
   -2.7675    0.6902    0.0000 O   0  0  0  0  0  0  0  0  0  0  0  0
   -5.6254    0.6901    0.0000 C   0  0  0  0  0  0  0  0  0  0  0  0
  1  2  2  0  0  0  0
  2  3  1  0  0  0  0
  3  4  2  0  0  0  0
  4  5  1  0  0  0  0
  5  6  2  0  0  0  0
  6  1  1  0  0  0  0
  1  7  1  0  0  0  0
  7  9  1  0  0  0  0
  9 11  1  0  0  0  0
  9 10  2  0  0  0  0
  7  8  1  0  0  0  0
  8 12  1  0  0  0  0
M  END
