
  MJ192500                      

 11 11  0  0  0  0  0  0  0  0999 V2000
   -3.8393   -0.1794    0.0000 C   0  0  0  0  0  0  0  0  0  0  0  0
   -4.5537   -0.5919    0.0000 C   0  0  0  0  0  0  0  0  0  0  0  0
   -4.5537   -1.4170    0.0000 C   0  0  0  0  0  0  0  0  0  0  0  0
   -3.8393   -1.8295    0.0000 C   0  0  0  0  0  0  0  0  0  0  0  0
   -3.1248   -1.4170    0.0000 C   0  0  0  0  0  0  0  0  0  0  0  0
   -3.1248   -0.5919    0.0000 C   0  0  0  0  0  0  0  0  0  0  0  0
   -3.8393   -2.6545    0.0000 C   0  0  0  0  0  0  0  0  0  0  0  0
   -2.4103   -1.8295    0.0000 N   0  0  0  0  0  0  0  0  0  0  0  0
   -3.8393    0.6455    0.0000 C   0  0  0  0  0  0  0  0  0  0  0  0
   -4.5538    1.0580    0.0000 O   0  0  0  0  0  0  0  0  0  0  0  0
   -3.1249    1.0581    0.0000 O   0  0  0  0  0  0  0  0  0  0  0  0
  1  2  2  0  0  0  0
  2  3  1  0  0  0  0
  3  4  2  0  0  0  0
  4  5  1  0  0  0  0
  5  6  2  0  0  0  0
  6  1  1  0  0  0  0
  4  7  1  0  0  0  0
  1  9  1  0  0  0  0
  9 10  2  0  0  0  0
  9 11  1  0  0  0  0
  5  8  1  0  0  0  0
M  END
