MODEL 1
REMARK VINA RESULT:    -4.877      0.000      0.000
REMARK INTER + INTRA:          -5.352
REMARK INTER:                  -5.313
REMARK INTRA:                  -0.039
REMARK UNBOUND:                -0.047
REMARK  Name = 
REMARK  3 active torsions:
REMARK  status: ('A' for Active; 'I' for Inactive)
REMARK    1  A    between atoms: C_1  and  C_9
REMARK    2  A    between atoms: C_4  and  C_7
REMARK    3  A    between atoms: C_5  and  N_8
REMARK                            x       y       z     vdW  Elec       q    Type
REMARK                         _______ _______ _______ _____ _____    ______ ____
ROOT
ATOM      1  C   UNL     1      19.596 -33.750 -22.773  0.00  0.00    -0.001 A 
ATOM      2  C   UNL     1      19.158 -32.982 -21.680  0.00  0.00    +0.032 A 
ATOM      3  C   UNL     1      19.313 -33.424 -20.358  0.00  0.00    +0.028 A 
ATOM      4  C   UNL     1      20.004 -34.619 -20.108  0.00  0.00    -0.030 A 
ATOM      5  C   UNL     1      20.243 -35.135 -18.718  0.00  0.00    +0.045 C 
ATOM      6  C   UNL     1      20.428 -35.402 -21.194  0.00  0.00    +0.006 A 
ATOM      7  C   UNL     1      20.225 -34.973 -22.508  0.00  0.00    +0.010 A 
ENDROOT
BRANCH   1   8
ATOM      8  C   UNL     1      19.403 -33.259 -24.193  0.00  0.00    +0.072 C 
ATOM      9  O   UNL     1      20.443 -33.152 -24.917  0.00  0.00    -0.545 OA
ATOM     10  O   UNL     1      18.214 -32.984 -24.555  0.00  0.00    -0.545 OA
ENDBRANCH   1   8
BRANCH   3  11
ATOM     11  N   UNL     1      18.988 -32.538 -19.300  0.00  0.00    -0.358 N 
ATOM     12  H   UNL     1      18.069 -32.777 -18.930  0.00  0.00    +0.142 HD
ATOM     13  H   UNL     1      18.942 -31.596 -19.684  0.00  0.00    +0.142 HD
ENDBRANCH   3  11
TORSDOF 2
ENDMDL
MODEL 2
REMARK VINA RESULT:    -4.851      3.682      4.910
REMARK INTER + INTRA:          -5.323
REMARK INTER:                  -5.277
REMARK INTRA:                  -0.046
REMARK UNBOUND:                -0.047
REMARK  Name = 
REMARK  3 active torsions:
REMARK  status: ('A' for Active; 'I' for Inactive)
REMARK    1  A    between atoms: C_1  and  C_9
REMARK    2  A    between atoms: C_4  and  C_7
REMARK    3  A    between atoms: C_5  and  N_8
REMARK                            x       y       z     vdW  Elec       q    Type
REMARK                         _______ _______ _______ _____ _____    ______ ____
ROOT
ATOM      1  C   UNL     1      19.672 -34.158 -19.321  0.00  0.00    -0.001 A 
ATOM      2  C   UNL     1      20.048 -35.188 -20.200  0.00  0.00    +0.032 A 
ATOM      3  C   UNL     1      19.987 -35.029 -21.592  0.00  0.00    +0.028 A 
ATOM      4  C   UNL     1      19.631 -33.781 -22.127  0.00  0.00    -0.030 A 
ATOM      5  C   UNL     1      19.582 -33.524 -23.606  0.00  0.00    +0.045 C 
ATOM      6  C   UNL     1      19.236 -32.753 -21.257  0.00  0.00    +0.006 A 
ATOM      7  C   UNL     1      19.255 -32.941 -19.872  0.00  0.00    +0.010 A 
ENDROOT
BRANCH   1   8
ATOM      8  C   UNL     1      19.732 -34.360 -17.820  0.00  0.00    +0.072 C 
ATOM      9  O   UNL     1      19.719 -33.316 -17.093  0.00  0.00    -0.545 OA
ATOM     10  O   UNL     1      19.795 -35.558 -17.399  0.00  0.00    -0.545 OA
ENDBRANCH   1   8
BRANCH   3  11
ATOM     11  N   UNL     1      20.521 -36.048 -22.420  0.00  0.00    -0.358 N 
ATOM     12  H   UNL     1      20.095 -35.990 -23.343  0.00  0.00    +0.142 HD
ATOM     13  H   UNL     1      20.272 -36.946 -22.009  0.00  0.00    +0.142 HD
ENDBRANCH   3  11
TORSDOF 2
ENDMDL
MODEL 3
REMARK VINA RESULT:    -4.619      2.978      4.021
REMARK INTER + INTRA:          -5.071
REMARK INTER:                  -5.026
REMARK INTRA:                  -0.045
REMARK UNBOUND:                -0.047
REMARK  Name = 
REMARK  3 active torsions:
REMARK  status: ('A' for Active; 'I' for Inactive)
REMARK    1  A    between atoms: C_1  and  C_9
REMARK    2  A    between atoms: C_4  and  C_7
REMARK    3  A    between atoms: C_5  and  N_8
REMARK                            x       y       z     vdW  Elec       q    Type
REMARK                         _______ _______ _______ _____ _____    ______ ____
ROOT
ATOM      1  C   UNL     1      19.461 -33.676 -21.311  0.00  0.00    -0.001 A 
ATOM      2  C   UNL     1      19.284 -33.030 -22.547  0.00  0.00    +0.032 A 
ATOM      3  C   UNL     1      19.716 -33.607 -23.750  0.00  0.00    +0.028 A 
ATOM      4  C   UNL     1      20.258 -34.901 -23.737  0.00  0.00    -0.030 A 
ATOM      5  C   UNL     1      20.706 -35.599 -24.990  0.00  0.00    +0.045 C 
ATOM      6  C   UNL     1      20.456 -35.546 -22.506  0.00  0.00    +0.006 A 
ATOM      7  C   UNL     1      20.064 -34.940 -21.310  0.00  0.00    +0.010 A 
ENDROOT
BRANCH   1   8
ATOM      8  C   UNL     1      18.999 -33.025 -20.023  0.00  0.00    +0.072 C 
ATOM      9  O   UNL     1      19.582 -33.384 -18.951  0.00  0.00    -0.545 OA
ATOM     10  O   UNL     1      18.059 -32.173 -20.109  0.00  0.00    -0.545 OA
ENDBRANCH   1   8
BRANCH   3  11
ATOM     11  N   UNL     1      19.373 -32.975 -24.972  0.00  0.00    -0.358 N 
ATOM     12  H   UNL     1      18.484 -33.343 -25.304  0.00  0.00    +0.142 HD
ATOM     13  H   UNL     1      20.091 -33.207 -25.656  0.00  0.00    +0.142 HD
ENDBRANCH   3  11
TORSDOF 2
ENDMDL
MODEL 4
REMARK VINA RESULT:    -4.536      3.162      4.371
REMARK INTER + INTRA:          -4.980
REMARK INTER:                  -4.940
REMARK INTRA:                  -0.040
REMARK UNBOUND:                -0.047
REMARK  Name = 
REMARK  3 active torsions:
REMARK  status: ('A' for Active; 'I' for Inactive)
REMARK    1  A    between atoms: C_1  and  C_9
REMARK    2  A    between atoms: C_4  and  C_7
REMARK    3  A    between atoms: C_5  and  N_8
REMARK                            x       y       z     vdW  Elec       q    Type
REMARK                         _______ _______ _______ _____ _____    ______ ____
ROOT
ATOM      1  C   UNL     1      21.510 -35.535 -22.718  0.00  0.00    -0.001 A 
ATOM      2  C   UNL     1      20.414 -34.880 -22.131  0.00  0.00    +0.032 A 
ATOM      3  C   UNL     1      19.737 -33.841 -22.787  0.00  0.00    +0.028 A 
ATOM      4  C   UNL     1      20.101 -33.504 -24.100  0.00  0.00    -0.030 A 
ATOM      5  C   UNL     1      19.397 -32.430 -24.879  0.00  0.00    +0.045 C 
ATOM      6  C   UNL     1      21.206 -34.140 -24.686  0.00  0.00    +0.006 A 
ATOM      7  C   UNL     1      21.902 -35.141 -24.003  0.00  0.00    +0.010 A 
ENDROOT
BRANCH   1   8
ATOM      8  C   UNL     1      22.235 -36.644 -21.983  0.00  0.00    +0.072 C 
ATOM      9  O   UNL     1      22.400 -37.741 -22.605  0.00  0.00    -0.545 OA
ATOM     10  O   UNL     1      22.620 -36.397 -20.796  0.00  0.00    -0.545 OA
ENDBRANCH   1   8
BRANCH   3  11
ATOM     11  N   UNL     1      18.551 -33.326 -22.207  0.00  0.00    -0.358 N 
ATOM     12  H   UNL     1      17.779 -33.963 -22.397  0.00  0.00    +0.142 HD
ATOM     13  H   UNL     1      18.346 -32.434 -22.653  0.00  0.00    +0.142 HD
ENDBRANCH   3  11
TORSDOF 2
ENDMDL
MODEL 5
REMARK VINA RESULT:    -4.477      1.606      2.208
REMARK INTER + INTRA:          -4.916
REMARK INTER:                  -4.874
REMARK INTRA:                  -0.042
REMARK UNBOUND:                -0.047
REMARK  Name = 
REMARK  3 active torsions:
REMARK  status: ('A' for Active; 'I' for Inactive)
REMARK    1  A    between atoms: C_1  and  C_9
REMARK    2  A    between atoms: C_4  and  C_7
REMARK    3  A    between atoms: C_5  and  N_8
REMARK                            x       y       z     vdW  Elec       q    Type
REMARK                         _______ _______ _______ _____ _____    ______ ____
ROOT
ATOM      1  C   UNL     1      19.713 -34.132 -22.496  0.00  0.00    -0.001 A 
ATOM      2  C   UNL     1      20.141 -35.187 -21.672  0.00  0.00    +0.032 A 
ATOM      3  C   UNL     1      20.171 -35.066 -20.275  0.00  0.00    +0.028 A 
ATOM      4  C   UNL     1      19.676 -33.898 -19.674  0.00  0.00    -0.030 A 
ATOM      5  C   UNL     1      19.640 -33.712 -18.185  0.00  0.00    +0.045 C 
ATOM      6  C   UNL     1      19.265 -32.833 -20.491  0.00  0.00    +0.006 A 
ATOM      7  C   UNL     1      19.285 -32.949 -21.883  0.00  0.00    +0.010 A 
ENDROOT
BRANCH   1   8
ATOM      8  C   UNL     1      19.704 -34.282 -24.005  0.00  0.00    +0.072 C 
ATOM      9  O   UNL     1      19.368 -35.416 -24.473  0.00  0.00    -0.545 OA
ATOM     10  O   UNL     1      20.039 -33.264 -24.690  0.00  0.00    -0.545 OA
ENDBRANCH   1   8
BRANCH   3  11
ATOM     11  N   UNL     1      20.468 -36.212 -19.496  0.00  0.00    -0.358 N 
ATOM     12  H   UNL     1      21.101 -35.953 -18.742  0.00  0.00    +0.142 HD
ATOM     13  H   UNL     1      20.944 -36.883 -20.097  0.00  0.00    +0.142 HD
ENDBRANCH   3  11
TORSDOF 2
ENDMDL
MODEL 6
REMARK VINA RESULT:    -4.314      2.471      3.318
REMARK INTER + INTRA:          -4.739
REMARK INTER:                  -4.703
REMARK INTRA:                  -0.037
REMARK UNBOUND:                -0.047
REMARK  Name = 
REMARK  3 active torsions:
REMARK  status: ('A' for Active; 'I' for Inactive)
REMARK    1  A    between atoms: C_1  and  C_9
REMARK    2  A    between atoms: C_4  and  C_7
REMARK    3  A    between atoms: C_5  and  N_8
REMARK                            x       y       z     vdW  Elec       q    Type
REMARK                         _______ _______ _______ _____ _____    ______ ____
ROOT
ATOM      1  C   UNL     1      20.603 -35.247 -24.592  0.00  0.00    -0.001 A 
ATOM      2  C   UNL     1      20.422 -35.922 -23.373  0.00  0.00    +0.032 A 
ATOM      3  C   UNL     1      20.025 -35.249 -22.208  0.00  0.00    +0.028 A 
ATOM      4  C   UNL     1      19.710 -33.883 -22.276  0.00  0.00    -0.030 A 
ATOM      5  C   UNL     1      19.241 -33.105 -21.080  0.00  0.00    +0.045 C 
ATOM      6  C   UNL     1      19.906 -33.197 -23.485  0.00  0.00    +0.006 A 
ATOM      7  C   UNL     1      20.348 -33.871 -24.627  0.00  0.00    +0.010 A 
ENDROOT
BRANCH   1   8
ATOM      8  C   UNL     1      21.048 -35.994 -25.834  0.00  0.00    +0.072 C 
ATOM      9  O   UNL     1      22.224 -35.763 -26.259  0.00  0.00    -0.545 OA
ATOM     10  O   UNL     1      20.209 -36.791 -26.361  0.00  0.00    -0.545 OA
ENDBRANCH   1   8
BRANCH   3  11
ATOM     11  N   UNL     1      19.716 -36.009 -21.053  0.00  0.00    -0.358 N 
ATOM     12  H   UNL     1      19.732 -37.000 -21.286  0.00  0.00    +0.142 HD
ATOM     13  H   UNL     1      18.771 -35.766 -20.762  0.00  0.00    +0.142 HD
ENDBRANCH   3  11
TORSDOF 2
ENDMDL
MODEL 7
REMARK VINA RESULT:    -4.124      5.046      6.157
REMARK INTER + INTRA:          -4.532
REMARK INTER:                  -4.496
REMARK INTRA:                  -0.036
REMARK UNBOUND:                -0.047
REMARK  Name = 
REMARK  3 active torsions:
REMARK  status: ('A' for Active; 'I' for Inactive)
REMARK    1  A    between atoms: C_1  and  C_9
REMARK    2  A    between atoms: C_4  and  C_7
REMARK    3  A    between atoms: C_5  and  N_8
REMARK                            x       y       z     vdW  Elec       q    Type
REMARK                         _______ _______ _______ _____ _____    ______ ____
ROOT
ATOM      1  C   UNL     1      23.488 -35.583 -25.786  0.00  0.00    -0.001 A 
ATOM      2  C   UNL     1      22.463 -36.302 -26.423  0.00  0.00    +0.032 A 
ATOM      3  C   UNL     1      21.129 -36.221 -25.996  0.00  0.00    +0.028 A 
ATOM      4  C   UNL     1      20.789 -35.331 -24.965  0.00  0.00    -0.030 A 
ATOM      5  C   UNL     1      19.378 -35.162 -24.481  0.00  0.00    +0.045 C 
ATOM      6  C   UNL     1      21.810 -34.623 -24.311  0.00  0.00    +0.006 A 
ATOM      7  C   UNL     1      23.142 -34.749 -24.716  0.00  0.00    +0.010 A 
ENDROOT
BRANCH   1   8
ATOM      8  C   UNL     1      24.925 -35.699 -26.256  0.00  0.00    +0.072 C 
ATOM      9  O   UNL     1      25.293 -34.920 -27.191  0.00  0.00    -0.545 OA
ATOM     10  O   UNL     1      25.653 -36.571 -25.684  0.00  0.00    -0.545 OA
ENDBRANCH   1   8
BRANCH   3  11
ATOM     11  N   UNL     1      20.125 -36.851 -26.772  0.00  0.00    -0.358 N 
ATOM     12  H   UNL     1      20.427 -37.793 -27.015  0.00  0.00    +0.142 HD
ATOM     13  H   UNL     1      20.015 -36.319 -27.633  0.00  0.00    +0.142 HD
ENDBRANCH   3  11
TORSDOF 2
ENDMDL
MODEL 8
REMARK VINA RESULT:    -4.111      2.152      2.920
REMARK INTER + INTRA:          -4.518
REMARK INTER:                  -4.476
REMARK INTRA:                  -0.042
REMARK UNBOUND:                -0.047
REMARK  Name = 
REMARK  3 active torsions:
REMARK  status: ('A' for Active; 'I' for Inactive)
REMARK    1  A    between atoms: C_1  and  C_9
REMARK    2  A    between atoms: C_4  and  C_7
REMARK    3  A    between atoms: C_5  and  N_8
REMARK                            x       y       z     vdW  Elec       q    Type
REMARK                         _______ _______ _______ _____ _____    ______ ____
ROOT
ATOM      1  C   UNL     1      20.189 -35.519 -23.285  0.00  0.00    -0.001 A 
ATOM      2  C   UNL     1      20.405 -35.810 -21.927  0.00  0.00    +0.032 A 
ATOM      3  C   UNL     1      20.114 -34.881 -20.917  0.00  0.00    +0.028 A 
ATOM      4  C   UNL     1      19.506 -33.663 -21.258  0.00  0.00    -0.030 A 
ATOM      5  C   UNL     1      19.129 -32.636 -20.229  0.00  0.00    +0.045 C 
ATOM      6  C   UNL     1      19.304 -33.357 -22.613  0.00  0.00    +0.006 A 
ATOM      7  C   UNL     1      19.643 -34.272 -23.612  0.00  0.00    +0.010 A 
ENDROOT
BRANCH   1   8
ATOM      8  C   UNL     1      20.526 -36.534 -24.358  0.00  0.00    +0.072 C 
ATOM      9  O   UNL     1      21.600 -37.199 -24.211  0.00  0.00    -0.545 OA
ATOM     10  O   UNL     1      19.712 -36.642 -25.330  0.00  0.00    -0.545 OA
ENDBRANCH   1   8
BRANCH   3  11
ATOM     11  N   UNL     1      20.212 -35.290 -19.564  0.00  0.00    -0.358 N 
ATOM     12  H   UNL     1      20.103 -36.301 -19.508  0.00  0.00    +0.142 HD
ATOM     13  H   UNL     1      19.447 -34.858 -19.050  0.00  0.00    +0.142 HD
ENDBRANCH   3  11
TORSDOF 2
ENDMDL
MODEL 9
REMARK VINA RESULT:    -4.012      3.880      5.029
REMARK INTER + INTRA:          -4.411
REMARK INTER:                  -4.364
REMARK INTRA:                  -0.047
REMARK UNBOUND:                -0.047
REMARK  Name = 
REMARK  3 active torsions:
REMARK  status: ('A' for Active; 'I' for Inactive)
REMARK    1  A    between atoms: C_1  and  C_9
REMARK    2  A    between atoms: C_4  and  C_7
REMARK    3  A    between atoms: C_5  and  N_8
REMARK                            x       y       z     vdW  Elec       q    Type
REMARK                         _______ _______ _______ _____ _____    ______ ____
ROOT
ATOM      1  C   UNL     1      20.932 -35.872 -18.702  0.00  0.00    -0.001 A 
ATOM      2  C   UNL     1      20.379 -34.900 -17.850  0.00  0.00    +0.032 A 
ATOM      3  C   UNL     1      19.668 -33.799 -18.349  0.00  0.00    +0.028 A 
ATOM      4  C   UNL     1      19.422 -33.706 -19.727  0.00  0.00    -0.030 A 
ATOM      5  C   UNL     1      18.636 -32.577 -20.330  0.00  0.00    +0.045 C 
ATOM      6  C   UNL     1      19.987 -34.661 -20.587  0.00  0.00    +0.006 A 
ATOM      7  C   UNL     1      20.734 -35.728 -20.080  0.00  0.00    +0.010 A 
ENDROOT
BRANCH   1   8
ATOM      8  C   UNL     1      21.709 -37.045 -18.139  0.00  0.00    +0.072 C 
ATOM      9  O   UNL     1      22.038 -37.966 -18.951  0.00  0.00    -0.545 OA
ATOM     10  O   UNL     1      21.970 -37.023 -16.894  0.00  0.00    -0.545 OA
ENDBRANCH   1   8
BRANCH   3  11
ATOM     11  N   UNL     1      19.009 -32.940 -17.434  0.00  0.00    -0.358 N 
ATOM     12  H   UNL     1      19.065 -31.981 -17.772  0.00  0.00    +0.142 HD
ATOM     13  H   UNL     1      19.501 -32.995 -16.544  0.00  0.00    +0.142 HD
ENDBRANCH   3  11
TORSDOF 2
ENDMDL
