
  MJ192500                      

 16 17  0  0  0  0  0  0  0  0999 V2000
   -4.4280    0.3574    0.0000 C   0  0  0  0  0  0  0  0  0  0  0  0
   -5.2529    0.3574    0.0000 C   0  0  0  0  0  0  0  0  0  0  0  0
   -5.6655   -0.3571    0.0000 C   0  0  0  0  0  0  0  0  0  0  0  0
   -5.2531   -1.0715    0.0000 C   0  0  0  0  0  0  0  0  0  0  0  0
   -4.4280   -1.0716    0.0000 C   0  0  0  0  0  0  0  0  0  0  0  0
   -4.0155   -0.3570    0.0000 C   0  0  0  0  0  0  0  0  0  0  0  0
   -3.1905   -0.3570    0.0000 C   0  0  0  0  0  0  0  0  0  0  0  0
   -2.7780   -1.0714    0.0000 C   0  0  0  0  0  0  0  0  0  0  0  0
   -1.9529   -1.0714    0.0000 C   0  0  0  0  0  0  0  0  0  0  0  0
   -1.5404   -0.3570    0.0000 C   0  0  0  0  0  0  0  0  0  0  0  0
   -1.9529    0.3574    0.0000 C   0  0  0  0  0  0  0  0  0  0  0  0
   -2.7780    0.3574    0.0000 C   0  0  0  0  0  0  0  0  0  0  0  0
   -0.7154   -0.3571    0.0000 C   0  0  0  0  0  0  0  0  0  0  0  0
   -0.0009    0.0553    0.0000 C   0  0  0  0  0  0  0  0  0  0  0  0
    0.7135   -0.3571    0.0000 O   0  0  0  0  0  0  0  0  0  0  0  0
   -0.0009    0.8803    0.0000 O   0  0  0  0  0  0  0  0  0  0  0  0
  1  2  1  0  0  0  0
  2  3  2  0  0  0  0
  3  4  1  0  0  0  0
  4  5  2  0  0  0  0
  5  6  1  0  0  0  0
  6  1  2  0  0  0  0
  6  7  1  0  0  0  0
  8  9  1  0  0  0  0
  9 10  2  0  0  0  0
 10 11  1  0  0  0  0
 11 12  2  0  0  0  0
  7  8  2  0  0  0  0
 12  7  1  0  0  0  0
 10 13  1  0  0  0  0
 13 14  1  0  0  0  0
 14 15  1  0  0  0  0
 14 16  2  0  0  0  0
M  END
