
  MJ192500                      

 15 16  0  0  0  0  0  0  0  0999 V2000
   -4.0402    0.5795    0.0000 C   0  0  0  0  0  0  0  0  0  0  0  0
   -4.7546    0.1670    0.0000 C   0  0  0  0  0  0  0  0  0  0  0  0
   -4.7546   -0.6580    0.0000 C   0  0  0  0  0  0  0  0  0  0  0  0
   -4.0402   -1.0705    0.0000 C   0  0  0  0  0  0  0  0  0  0  0  0
   -3.3257   -0.6580    0.0000 C   0  0  0  0  0  0  0  0  0  0  0  0
   -3.3257    0.1670    0.0000 C   0  0  0  0  0  0  0  0  0  0  0  0
   -2.6111   -1.0705    0.0000 C   0  0  0  0  0  0  0  0  0  0  0  0
   -1.8967   -0.6581    0.0000 C   0  0  0  0  0  0  0  0  0  0  0  0
   -1.8966    0.1668    0.0000 C   0  0  0  0  0  0  0  0  0  0  0  0
   -2.6112    0.5794    0.0000 C   0  0  0  0  0  0  0  0  0  0  0  0
   -1.1821    0.5793    0.0000 C   0  0  0  0  0  0  0  0  0  0  0  0
   -0.4285    0.2437    0.0000 O   0  0  0  0  0  0  0  0  0  0  0  0
   -1.1822   -1.0707    0.0000 O   0  0  0  0  0  0  0  0  0  0  0  0
   -1.2253    1.4031    0.0000 O   0  0  0  0  0  0  0  0  0  0  0  0
    0.3964    0.2437    0.0000 C   0  0  0  0  0  0  0  0  0  0  0  0
  1  2  2  0  0  0  0
  2  3  1  0  0  0  0
  3  4  2  0  0  0  0
  4  5  1  0  0  0  0
  5  6  2  0  0  0  0
  6  1  1  0  0  0  0
  7  8  2  0  0  0  0
  8  9  1  0  0  0  0
  9 10  2  0  0  0  0
  5  7  1  0  0  0  0
 10  6  1  0  0  0  0
  9 11  1  0  0  0  0
 11 14  2  0  0  0  0
  8 13  1  0  0  0  0
 11 12  1  0  0  0  0
 12 15  1  0  0  0  0
M  END
