
  MJ192500                      

 17 18  0  0  0  0  0  0  0  0999 V2000
   -4.9777    0.2893    0.0000 C   0  0  0  0  0  0  0  0  0  0  0  0
   -5.6921   -0.1231    0.0000 C   0  0  0  0  0  0  0  0  0  0  0  0
   -5.6921   -0.9482    0.0000 C   0  0  0  0  0  0  0  0  0  0  0  0
   -4.9777   -1.3607    0.0000 C   0  0  0  0  0  0  0  0  0  0  0  0
   -4.2632   -0.9482    0.0000 C   0  0  0  0  0  0  0  0  0  0  0  0
   -4.2632   -0.1231    0.0000 C   0  0  0  0  0  0  0  0  0  0  0  0
   -3.5487    0.2893    0.0000 C   0  0  0  0  0  0  0  0  0  0  0  0
   -2.8342   -0.1231    0.0000 C   0  0  0  0  0  0  0  0  0  0  0  0
   -2.8342   -0.9481    0.0000 C   0  0  0  0  0  0  0  0  0  0  0  0
   -2.1197   -1.3606    0.0000 C   0  0  0  0  0  0  0  0  0  0  0  0
   -1.4052   -0.9482    0.0000 C   0  0  0  0  0  0  0  0  0  0  0  0
   -1.4052   -0.1232    0.0000 C   0  0  0  0  0  0  0  0  0  0  0  0
   -2.1197    0.2893    0.0000 C   0  0  0  0  0  0  0  0  0  0  0  0
   -3.5487    1.1143    0.0000 O   0  0  0  0  0  0  0  0  0  0  0  0
   -2.1197    1.1143    0.0000 C   0  0  0  0  0  0  0  0  0  0  0  0
   -1.5677    1.7274    0.0000 O   0  0  0  0  0  0  0  0  0  0  0  0
   -2.8899    1.4100    0.0000 O   0  0  0  0  0  0  0  0  0  0  0  0
  1  2  2  0  0  0  0
  2  3  1  0  0  0  0
  3  4  2  0  0  0  0
  4  5  1  0  0  0  0
  5  6  2  0  0  0  0
  6  1  1  0  0  0  0
  6  7  1  0  0  0  0
  7  8  1  0  0  0  0
  9 10  1  0  0  0  0
 10 11  2  0  0  0  0
 11 12  1  0  0  0  0
 12 13  2  0  0  0  0
  8  9  2  0  0  0  0
 13  8  1  0  0  0  0
  7 14  2  0  0  0  0
 13 15  1  0  0  0  0
 15 17  2  0  0  0  0
 15 16  1  0  0  0  0
M  END
