MODEL 1
REMARK VINA RESULT:    -6.304      0.000      0.000
REMARK INTER + INTRA:          -8.065
REMARK INTER:                  -7.290
REMARK INTRA:                  -0.775
REMARK UNBOUND:                -0.655
REMARK  Name = 
REMARK  3 active torsions:
REMARK  status: ('A' for Active; 'I' for Inactive)
REMARK    1  A    between atoms: C_6  and  C_7
REMARK    2  A    between atoms: C_7  and  C_8
REMARK    3  A    between atoms: C_13  and  C_15
REMARK                            x       y       z     vdW  Elec       q    Type
REMARK                         _______ _______ _______ _____ _____    ______ ____
ROOT
ATOM      1  C   UNL     1      20.013 -35.174 -22.967  0.00  0.00    +0.031 A 
ATOM      2  C   UNL     1      19.514 -33.862 -22.927  0.00  0.00    +0.008 A 
ATOM      3  C   UNL     1      19.287 -33.270 -21.667  0.00  0.00    +0.010 A 
ATOM      4  C   UNL     1      19.575 -33.948 -20.482  0.00  0.00    +0.001 A 
ATOM      5  C   UNL     1      20.103 -35.233 -20.531  0.00  0.00    +0.001 A 
ATOM      6  C   UNL     1      20.322 -35.842 -21.766  0.00  0.00    +0.012 A 
ENDROOT
BRANCH   2   7
ATOM      7  C   UNL     1      19.241 -33.051 -24.162  0.00  0.00    +0.072 C 
ATOM      8  O   UNL     1      18.050 -33.037 -24.596  0.00  0.00    -0.545 OA
ATOM      9  O   UNL     1      20.240 -32.460 -24.678  0.00  0.00    -0.545 OA
ENDBRANCH   2   7
BRANCH   1  10
ATOM     10  C   UNL     1      20.219 -35.961 -24.212  0.00  0.00    +0.194 C 
ATOM     11  O   UNL     1      19.246 -36.529 -24.715  0.00  0.00    -0.287 OA
BRANCH  10  13
ATOM     12  C   UNL     1      22.608 -35.181 -24.538  0.00  0.00    +0.012 A 
ATOM     13  C   UNL     1      21.503 -35.926 -24.969  0.00  0.00    +0.022 A 
ATOM     14  C   UNL     1      21.572 -36.608 -26.191  0.00  0.00    +0.012 A 
ATOM     15  C   UNL     1      22.735 -36.564 -26.963  0.00  0.00    +0.001 A 
ATOM     16  C   UNL     1      23.835 -35.832 -26.520  0.00  0.00    +0.000 A 
ATOM     17  C   UNL     1      23.772 -35.141 -25.310  0.00  0.00    +0.001 A 
ENDBRANCH  10  13
ENDBRANCH   1  10
TORSDOF 3
ENDMDL
MODEL 2
REMARK VINA RESULT:    -6.217      4.281      6.112
REMARK INTER + INTRA:          -7.962
REMARK INTER:                  -7.283
REMARK INTRA:                  -0.679
REMARK UNBOUND:                -0.655
REMARK  Name = 
REMARK  3 active torsions:
REMARK  status: ('A' for Active; 'I' for Inactive)
REMARK    1  A    between atoms: C_6  and  C_7
REMARK    2  A    between atoms: C_7  and  C_8
REMARK    3  A    between atoms: C_13  and  C_15
REMARK                            x       y       z     vdW  Elec       q    Type
REMARK                         _______ _______ _______ _____ _____    ______ ____
ROOT
ATOM      1  C   UNL     1      20.068 -35.188 -19.921  0.00  0.00    +0.031 A 
ATOM      2  C   UNL     1      19.475 -34.060 -19.333  0.00  0.00    +0.008 A 
ATOM      3  C   UNL     1      19.126 -32.976 -20.165  0.00  0.00    +0.010 A 
ATOM      4  C   UNL     1      19.332 -33.022 -21.545  0.00  0.00    +0.001 A 
ATOM      5  C   UNL     1      19.887 -34.158 -22.124  0.00  0.00    +0.001 A 
ATOM      6  C   UNL     1      20.252 -35.236 -21.316  0.00  0.00    +0.012 A 
ENDROOT
BRANCH   2   7
ATOM      7  C   UNL     1      19.166 -33.966 -17.865  0.00  0.00    +0.072 C 
ATOM      8  O   UNL     1      19.977 -33.315 -17.141  0.00  0.00    -0.545 OA
ATOM      9  O   UNL     1      18.120 -34.570 -17.472  0.00  0.00    -0.545 OA
ENDBRANCH   2   7
BRANCH   1  10
ATOM     10  C   UNL     1      20.570 -36.368 -19.166  0.00  0.00    +0.194 C 
ATOM     11  O   UNL     1      19.899 -37.403 -19.182  0.00  0.00    -0.287 OA
BRANCH  10  13
ATOM     12  C   UNL     1      23.069 -35.952 -19.247  0.00  0.00    +0.012 A 
ATOM     13  C   UNL     1      21.932 -36.401 -18.562  0.00  0.00    +0.022 A 
ATOM     14  C   UNL     1      22.080 -36.970 -17.290  0.00  0.00    +0.012 A 
ATOM     15  C   UNL     1      23.342 -37.072 -16.701  0.00  0.00    +0.001 A 
ATOM     16  C   UNL     1      24.467 -36.610 -17.384  0.00  0.00    +0.000 A 
ATOM     17  C   UNL     1      24.330 -36.051 -18.654  0.00  0.00    +0.001 A 
ENDBRANCH  10  13
ENDBRANCH   1  10
TORSDOF 3
ENDMDL
MODEL 3
REMARK VINA RESULT:    -5.992      1.727      2.833
REMARK INTER + INTRA:          -7.697
REMARK INTER:                  -7.107
REMARK INTRA:                  -0.590
REMARK UNBOUND:                -0.655
REMARK  Name = 
REMARK  3 active torsions:
REMARK  status: ('A' for Active; 'I' for Inactive)
REMARK    1  A    between atoms: C_6  and  C_7
REMARK    2  A    between atoms: C_7  and  C_8
REMARK    3  A    between atoms: C_13  and  C_15
REMARK                            x       y       z     vdW  Elec       q    Type
REMARK                         _______ _______ _______ _____ _____    ______ ____
ROOT
ATOM      1  C   UNL     1      20.429 -35.126 -22.714  0.00  0.00    +0.031 A 
ATOM      2  C   UNL     1      19.691 -33.935 -22.793  0.00  0.00    +0.008 A 
ATOM      3  C   UNL     1      19.210 -33.364 -21.596  0.00  0.00    +0.010 A 
ATOM      4  C   UNL     1      19.480 -33.943 -20.354  0.00  0.00    +0.001 A 
ATOM      5  C   UNL     1      20.243 -35.103 -20.283  0.00  0.00    +0.001 A 
ATOM      6  C   UNL     1      20.716 -35.691 -21.456  0.00  0.00    +0.012 A 
ENDROOT
BRANCH   2   7
ATOM      7  C   UNL     1      19.416 -33.224 -24.088  0.00  0.00    +0.072 C 
ATOM      8  O   UNL     1      20.369 -32.568 -24.605  0.00  0.00    -0.545 OA
ATOM      9  O   UNL     1      18.235 -33.328 -24.544  0.00  0.00    -0.545 OA
ENDBRANCH   2   7
BRANCH   1  10
ATOM     10  C   UNL     1      20.924 -35.892 -23.890  0.00  0.00    +0.194 C 
ATOM     11  O   UNL     1      22.072 -35.678 -24.287  0.00  0.00    -0.287 OA
BRANCH  10  13
ATOM     12  C   UNL     1      19.241 -37.779 -23.727  0.00  0.00    +0.012 A 
ATOM     13  C   UNL     1      20.160 -37.030 -24.473  0.00  0.00    +0.022 A 
ATOM     14  C   UNL     1      20.431 -37.403 -25.797  0.00  0.00    +0.012 A 
ATOM     15  C   UNL     1      19.779 -38.495 -26.374  0.00  0.00    +0.001 A 
ATOM     16  C   UNL     1      18.855 -39.226 -25.628  0.00  0.00    +0.000 A 
ATOM     17  C   UNL     1      18.587 -38.869 -24.307  0.00  0.00    +0.001 A 
ENDBRANCH  10  13
ENDBRANCH   1  10
TORSDOF 3
ENDMDL
MODEL 4
REMARK VINA RESULT:    -5.699      2.966      4.458
REMARK INTER + INTRA:          -7.353
REMARK INTER:                  -6.612
REMARK INTRA:                  -0.742
REMARK UNBOUND:                -0.655
REMARK  Name = 
REMARK  3 active torsions:
REMARK  status: ('A' for Active; 'I' for Inactive)
REMARK    1  A    between atoms: C_6  and  C_7
REMARK    2  A    between atoms: C_7  and  C_8
REMARK    3  A    between atoms: C_13  and  C_15
REMARK                            x       y       z     vdW  Elec       q    Type
REMARK                         _______ _______ _______ _____ _____    ______ ____
ROOT
ATOM      1  C   UNL     1      21.584 -36.235 -20.687  0.00  0.00    +0.031 A 
ATOM      2  C   UNL     1      21.292 -35.863 -19.366  0.00  0.00    +0.008 A 
ATOM      3  C   UNL     1      22.289 -36.041 -18.384  0.00  0.00    +0.010 A 
ATOM      4  C   UNL     1      23.549 -36.546 -18.710  0.00  0.00    +0.001 A 
ATOM      5  C   UNL     1      23.842 -36.878 -20.028  0.00  0.00    +0.001 A 
ATOM      6  C   UNL     1      22.865 -36.723 -21.011  0.00  0.00    +0.012 A 
ENDROOT
BRANCH   2   7
ATOM      7  C   UNL     1      19.981 -35.255 -18.955  0.00  0.00    +0.072 C 
ATOM      8  O   UNL     1      19.911 -33.990 -18.922  0.00  0.00    -0.545 OA
ATOM      9  O   UNL     1      19.055 -36.071 -18.655  0.00  0.00    -0.545 OA
ENDBRANCH   2   7
BRANCH   1  10
ATOM     10  C   UNL     1      20.611 -36.190 -21.812  0.00  0.00    +0.194 C 
ATOM     11  O   UNL     1      19.774 -37.092 -21.899  0.00  0.00    -0.287 OA
BRANCH  10  13
ATOM     12  C   UNL     1      19.598 -33.957 -22.454  0.00  0.00    +0.012 A 
ATOM     13  C   UNL     1      20.491 -35.006 -22.709  0.00  0.00    +0.022 A 
ATOM     14  C   UNL     1      21.252 -34.986 -23.886  0.00  0.00    +0.012 A 
ATOM     15  C   UNL     1      21.138 -33.923 -24.785  0.00  0.00    +0.001 A 
ATOM     16  C   UNL     1      20.257 -32.877 -24.517  0.00  0.00    +0.000 A 
ATOM     17  C   UNL     1      19.489 -32.894 -23.353  0.00  0.00    +0.001 A 
ENDBRANCH  10  13
ENDBRANCH   1  10
TORSDOF 3
ENDMDL
MODEL 5
REMARK VINA RESULT:    -5.650      4.333      6.883
REMARK INTER + INTRA:          -7.296
REMARK INTER:                  -6.565
REMARK INTRA:                  -0.731
REMARK UNBOUND:                -0.655
REMARK  Name = 
REMARK  3 active torsions:
REMARK  status: ('A' for Active; 'I' for Inactive)
REMARK    1  A    between atoms: C_6  and  C_7
REMARK    2  A    between atoms: C_7  and  C_8
REMARK    3  A    between atoms: C_13  and  C_15
REMARK                            x       y       z     vdW  Elec       q    Type
REMARK                         _______ _______ _______ _____ _____    ______ ____
ROOT
ATOM      1  C   UNL     1      22.171 -36.548 -18.802  0.00  0.00    +0.031 A 
ATOM      2  C   UNL     1      22.083 -37.027 -17.485  0.00  0.00    +0.008 A 
ATOM      3  C   UNL     1      23.269 -37.117 -16.725  0.00  0.00    +0.010 A 
ATOM      4  C   UNL     1      24.500 -36.715 -17.246  0.00  0.00    +0.001 A 
ATOM      5  C   UNL     1      24.571 -36.207 -18.539  0.00  0.00    +0.001 A 
ATOM      6  C   UNL     1      23.413 -36.124 -19.312  0.00  0.00    +0.012 A 
ENDROOT
BRANCH   2   7
ATOM      7  C   UNL     1      20.785 -37.419 -16.839  0.00  0.00    +0.072 C 
ATOM      8  O   UNL     1      20.126 -36.506 -16.258  0.00  0.00    -0.545 OA
ATOM      9  O   UNL     1      20.468 -38.646 -16.915  0.00  0.00    -0.545 OA
ENDBRANCH   2   7
BRANCH   1  10
ATOM     10  C   UNL     1      21.028 -36.480 -19.752  0.00  0.00    +0.194 C 
ATOM     11  O   UNL     1      20.574 -37.536 -20.200  0.00  0.00    -0.287 OA
BRANCH  10  13
ATOM     12  C   UNL     1      20.002 -34.778 -21.326  0.00  0.00    +0.012 A 
ATOM     13  C   UNL     1      20.301 -35.208 -20.027  0.00  0.00    +0.022 A 
ATOM     14  C   UNL     1      19.974 -34.384 -18.941  0.00  0.00    +0.012 A 
ATOM     15  C   UNL     1      19.338 -33.158 -19.147  0.00  0.00    +0.001 A 
ATOM     16  C   UNL     1      19.031 -32.744 -20.443  0.00  0.00    +0.000 A 
ATOM     17  C   UNL     1      19.362 -33.553 -21.530  0.00  0.00    +0.001 A 
ENDBRANCH  10  13
ENDBRANCH   1  10
TORSDOF 3
ENDMDL
MODEL 6
REMARK VINA RESULT:    -5.650      3.402      4.716
REMARK INTER + INTRA:          -7.296
REMARK INTER:                  -6.538
REMARK INTRA:                  -0.758
REMARK UNBOUND:                -0.655
REMARK  Name = 
REMARK  3 active torsions:
REMARK  status: ('A' for Active; 'I' for Inactive)
REMARK    1  A    between atoms: C_6  and  C_7
REMARK    2  A    between atoms: C_7  and  C_8
REMARK    3  A    between atoms: C_13  and  C_15
REMARK                            x       y       z     vdW  Elec       q    Type
REMARK                         _______ _______ _______ _____ _____    ______ ____
ROOT
ATOM      1  C   UNL     1      18.913 -36.442 -20.247  0.00  0.00    +0.031 A 
ATOM      2  C   UNL     1      17.850 -36.078 -19.406  0.00  0.00    +0.008 A 
ATOM      3  C   UNL     1      16.752 -36.957 -19.293  0.00  0.00    +0.010 A 
ATOM      4  C   UNL     1      16.725 -38.177 -19.972  0.00  0.00    +0.001 A 
ATOM      5  C   UNL     1      17.799 -38.547 -20.774  0.00  0.00    +0.001 A 
ATOM      6  C   UNL     1      18.887 -37.685 -20.910  0.00  0.00    +0.012 A 
ENDROOT
BRANCH   2   7
ATOM      7  C   UNL     1      17.840 -34.811 -18.598  0.00  0.00    +0.072 C 
ATOM      8  O   UNL     1      18.290 -34.873 -17.415  0.00  0.00    -0.545 OA
ATOM      9  O   UNL     1      17.359 -33.785 -19.170  0.00  0.00    -0.545 OA
ENDBRANCH   2   7
BRANCH   1  10
ATOM     10  C   UNL     1      20.093 -35.584 -20.537  0.00  0.00    +0.194 C 
ATOM     11  O   UNL     1      21.023 -35.573 -19.726  0.00  0.00    -0.287 OA
BRANCH  10  13
ATOM     12  C   UNL     1      19.497 -33.795 -22.230  0.00  0.00    +0.012 A 
ATOM     13  C   UNL     1      20.270 -34.898 -21.848  0.00  0.00    +0.022 A 
ATOM     14  C   UNL     1      21.198 -35.430 -22.754  0.00  0.00    +0.012 A 
ATOM     15  C   UNL     1      21.366 -34.856 -24.016  0.00  0.00    +0.001 A 
ATOM     16  C   UNL     1      20.602 -33.749 -24.383  0.00  0.00    +0.000 A 
ATOM     17  C   UNL     1      19.669 -33.219 -23.491  0.00  0.00    +0.001 A 
ENDBRANCH  10  13
ENDBRANCH   1  10
TORSDOF 3
ENDMDL
MODEL 7
REMARK VINA RESULT:    -5.627      2.163      3.520
REMARK INTER + INTRA:          -7.268
REMARK INTER:                  -6.513
REMARK INTRA:                  -0.756
REMARK UNBOUND:                -0.655
REMARK  Name = 
REMARK  3 active torsions:
REMARK  status: ('A' for Active; 'I' for Inactive)
REMARK    1  A    between atoms: C_6  and  C_7
REMARK    2  A    between atoms: C_7  and  C_8
REMARK    3  A    between atoms: C_13  and  C_15
REMARK                            x       y       z     vdW  Elec       q    Type
REMARK                         _______ _______ _______ _____ _____    ______ ____
ROOT
ATOM      1  C   UNL     1      21.323 -34.732 -24.185  0.00  0.00    +0.031 A 
ATOM      2  C   UNL     1      21.029 -35.222 -22.902  0.00  0.00    +0.008 A 
ATOM      3  C   UNL     1      20.100 -34.514 -22.111  0.00  0.00    +0.010 A 
ATOM      4  C   UNL     1      19.458 -33.371 -22.591  0.00  0.00    +0.001 A 
ATOM      5  C   UNL     1      19.727 -32.914 -23.876  0.00  0.00    +0.001 A 
ATOM      6  C   UNL     1      20.654 -33.591 -24.669  0.00  0.00    +0.012 A 
ENDROOT
BRANCH   2   7
ATOM      7  C   UNL     1      21.635 -36.479 -22.346  0.00  0.00    +0.072 C 
ATOM      8  O   UNL     1      21.051 -37.572 -22.611  0.00  0.00    -0.545 OA
ATOM      9  O   UNL     1      22.677 -36.333 -21.635  0.00  0.00    -0.545 OA
ENDBRANCH   2   7
BRANCH   1  10
ATOM     10  C   UNL     1      22.342 -35.315 -25.098  0.00  0.00    +0.194 C 
ATOM     11  O   UNL     1      23.485 -34.850 -25.074  0.00  0.00    -0.287 OA
BRANCH  10  13
ATOM     12  C   UNL     1      20.789 -37.022 -26.146  0.00  0.00    +0.012 A 
ATOM     13  C   UNL     1      22.083 -36.552 -25.888  0.00  0.00    +0.022 A 
ATOM     14  C   UNL     1      23.183 -37.304 -26.322  0.00  0.00    +0.012 A 
ATOM     15  C   UNL     1      22.994 -38.498 -27.022  0.00  0.00    +0.001 A 
ATOM     16  C   UNL     1      21.702 -38.951 -27.286  0.00  0.00    +0.000 A 
ATOM     17  C   UNL     1      20.602 -38.214 -26.849  0.00  0.00    +0.001 A 
ENDBRANCH  10  13
ENDBRANCH   1  10
TORSDOF 3
ENDMDL
MODEL 8
REMARK VINA RESULT:    -5.617      2.488      5.143
REMARK INTER + INTRA:          -7.257
REMARK INTER:                  -6.602
REMARK INTRA:                  -0.655
REMARK UNBOUND:                -0.655
REMARK  Name = 
REMARK  3 active torsions:
REMARK  status: ('A' for Active; 'I' for Inactive)
REMARK    1  A    between atoms: C_6  and  C_7
REMARK    2  A    between atoms: C_7  and  C_8
REMARK    3  A    between atoms: C_13  and  C_15
REMARK                            x       y       z     vdW  Elec       q    Type
REMARK                         _______ _______ _______ _____ _____    ______ ____
ROOT
ATOM      1  C   UNL     1      20.621 -37.635 -24.888  0.00  0.00    +0.031 A 
ATOM      2  C   UNL     1      21.076 -37.948 -26.178  0.00  0.00    +0.008 A 
ATOM      3  C   UNL     1      20.388 -38.939 -26.909  0.00  0.00    +0.010 A 
ATOM      4  C   UNL     1      19.263 -39.579 -26.386  0.00  0.00    +0.001 A 
ATOM      5  C   UNL     1      18.797 -39.237 -25.122  0.00  0.00    +0.001 A 
ATOM      6  C   UNL     1      19.472 -38.269 -24.377  0.00  0.00    +0.012 A 
ENDROOT
BRANCH   2   7
ATOM      7  C   UNL     1      22.241 -37.257 -26.828  0.00  0.00    +0.072 C 
ATOM      8  O   UNL     1      22.027 -36.121 -27.349  0.00  0.00    -0.545 OA
ATOM      9  O   UNL     1      23.344 -37.886 -26.817  0.00  0.00    -0.545 OA
ENDBRANCH   2   7
BRANCH   1  10
ATOM     10  C   UNL     1      21.292 -36.680 -23.965  0.00  0.00    +0.194 C 
ATOM     11  O   UNL     1      22.386 -36.996 -23.490  0.00  0.00    -0.287 OA
BRANCH  10  13
ATOM     12  C   UNL     1      20.033 -34.933 -22.629  0.00  0.00    +0.012 A 
ATOM     13  C   UNL     1      20.786 -35.295 -23.753  0.00  0.00    +0.022 A 
ATOM     14  C   UNL     1      21.016 -34.344 -24.757  0.00  0.00    +0.012 A 
ATOM     15  C   UNL     1      20.518 -33.045 -24.631  0.00  0.00    +0.001 A 
ATOM     16  C   UNL     1      19.782 -32.690 -23.502  0.00  0.00    +0.000 A 
ATOM     17  C   UNL     1      19.539 -33.632 -22.503  0.00  0.00    +0.001 A 
ENDBRANCH  10  13
ENDBRANCH   1  10
TORSDOF 3
ENDMDL
MODEL 9
REMARK VINA RESULT:    -5.605      1.248      5.306
REMARK INTER + INTRA:          -7.243
REMARK INTER:                  -6.574
REMARK INTRA:                  -0.669
REMARK UNBOUND:                -0.655
REMARK  Name = 
REMARK  3 active torsions:
REMARK  status: ('A' for Active; 'I' for Inactive)
REMARK    1  A    between atoms: C_6  and  C_7
REMARK    2  A    between atoms: C_7  and  C_8
REMARK    3  A    between atoms: C_13  and  C_15
REMARK                            x       y       z     vdW  Elec       q    Type
REMARK                         _______ _______ _______ _____ _____    ______ ____
ROOT
ATOM      1  C   UNL     1      21.280 -35.303 -24.427  0.00  0.00    +0.031 A 
ATOM      2  C   UNL     1      21.359 -36.598 -24.963  0.00  0.00    +0.008 A 
ATOM      3  C   UNL     1      22.550 -36.983 -25.612  0.00  0.00    +0.010 A 
ATOM      4  C   UNL     1      23.643 -36.119 -25.700  0.00  0.00    +0.001 A 
ATOM      5  C   UNL     1      23.570 -34.851 -25.134  0.00  0.00    +0.001 A 
ATOM      6  C   UNL     1      22.395 -34.445 -24.501  0.00  0.00    +0.012 A 
ENDROOT
BRANCH   2   7
ATOM      7  C   UNL     1      20.246 -37.601 -24.851  0.00  0.00    +0.072 C 
ATOM      8  O   UNL     1      19.551 -37.817 -25.888  0.00  0.00    -0.545 OA
ATOM      9  O   UNL     1      20.086 -38.136 -23.710  0.00  0.00    -0.545 OA
ENDBRANCH   2   7
BRANCH   1  10
ATOM     10  C   UNL     1      20.064 -34.723 -23.795  0.00  0.00    +0.194 C 
ATOM     11  O   UNL     1      19.054 -34.582 -24.488  0.00  0.00    -0.287 OA
BRANCH  10  13
ATOM     12  C   UNL     1      20.401 -35.439 -21.387  0.00  0.00    +0.012 A 
ATOM     13  C   UNL     1      19.969 -34.493 -22.325  0.00  0.00    +0.022 A 
ATOM     14  C   UNL     1      19.356 -33.315 -21.877  0.00  0.00    +0.012 A 
ATOM     15  C   UNL     1      19.196 -33.075 -20.510  0.00  0.00    +0.001 A 
ATOM     16  C   UNL     1      19.642 -34.016 -19.583  0.00  0.00    +0.000 A 
ATOM     17  C   UNL     1      20.243 -35.195 -20.020  0.00  0.00    +0.001 A 
ENDBRANCH  10  13
ENDBRANCH   1  10
TORSDOF 3
ENDMDL
