MODEL 1
REMARK VINA RESULT:    -6.027      0.000      0.000
REMARK INTER + INTRA:          -7.639
REMARK INTER:                  -6.988
REMARK INTRA:                  -0.651
REMARK UNBOUND:                -0.555
REMARK  Name = 
REMARK  3 active torsions:
REMARK  status: ('A' for Active; 'I' for Inactive)
REMARK    1  A    between atoms: C_1  and  C_7
REMARK    2  A    between atoms: C_7  and  C_8
REMARK    3  A    between atoms: C_9  and  C_14
REMARK                            x       y       z     vdW  Elec       q    Type
REMARK                         _______ _______ _______ _____ _____    ______ ____
ROOT
ATOM      1  C   UNL     1      19.804 -35.228 -23.256  0.00  0.00    -0.034 A 
ATOM      2  C   UNL     1      20.110 -35.947 -22.082  0.00  0.00    +0.004 A 
ATOM      3  C   UNL     1      20.031 -35.352 -20.821  0.00  0.00    +0.000 A 
ATOM      4  C   UNL     1      19.633 -34.027 -20.704  0.00  0.00    +0.001 A 
ATOM      5  C   UNL     1      19.296 -33.305 -21.847  0.00  0.00    +0.010 A 
ATOM      6  C   UNL     1      19.353 -33.888 -23.131  0.00  0.00    +0.001 A 
ENDROOT
BRANCH   6   7
ATOM      7  C   UNL     1      18.909 -33.042 -24.314  0.00  0.00    +0.072 C 
ATOM      8  O   UNL     1      19.801 -32.374 -24.926  0.00  0.00    -0.545 OA
ATOM      9  O   UNL     1      17.677 -33.088 -24.620  0.00  0.00    -0.545 OA
ENDBRANCH   6   7
BRANCH   1  10
ATOM     10  C   UNL     1      19.912 -35.882 -24.626  0.00  0.00    +0.071 C 
BRANCH  10  11
ATOM     11  C   UNL     1      21.285 -35.860 -25.277  0.00  0.00    -0.043 A 
ATOM     12  C   UNL     1      22.329 -35.117 -24.704  0.00  0.00    +0.004 A 
ATOM     13  C   UNL     1      23.593 -35.099 -25.294  0.00  0.00    +0.000 A 
ATOM     14  C   UNL     1      23.827 -35.820 -26.464  0.00  0.00    +0.000 A 
ATOM     15  C   UNL     1      22.797 -36.561 -27.043  0.00  0.00    +0.000 A 
ATOM     16  C   UNL     1      21.532 -36.581 -26.454  0.00  0.00    +0.004 A 
ENDBRANCH  10  11
ENDBRANCH   1  10
TORSDOF 3
ENDMDL
MODEL 2
REMARK VINA RESULT:    -5.973      4.198      6.192
REMARK INTER + INTRA:          -7.576
REMARK INTER:                  -7.085
REMARK INTRA:                  -0.491
REMARK UNBOUND:                -0.555
REMARK  Name = 
REMARK  3 active torsions:
REMARK  status: ('A' for Active; 'I' for Inactive)
REMARK    1  A    between atoms: C_1  and  C_7
REMARK    2  A    between atoms: C_7  and  C_8
REMARK    3  A    between atoms: C_9  and  C_14
REMARK                            x       y       z     vdW  Elec       q    Type
REMARK                         _______ _______ _______ _____ _____    ______ ____
ROOT
ATOM      1  C   UNL     1      20.105 -35.403 -19.917  0.00  0.00    -0.034 A 
ATOM      2  C   UNL     1      20.391 -35.442 -21.298  0.00  0.00    +0.004 A 
ATOM      3  C   UNL     1      20.015 -34.401 -22.150  0.00  0.00    +0.000 A 
ATOM      4  C   UNL     1      19.356 -33.291 -21.638  0.00  0.00    +0.001 A 
ATOM      5  C   UNL     1      19.090 -33.215 -20.273  0.00  0.00    +0.010 A 
ATOM      6  C   UNL     1      19.473 -34.247 -19.389  0.00  0.00    +0.001 A 
ENDROOT
BRANCH   6   7
ATOM      7  C   UNL     1      19.195 -34.050 -17.907  0.00  0.00    +0.072 C 
ATOM      8  O   UNL     1      20.020 -33.348 -17.243  0.00  0.00    -0.545 OA
ATOM      9  O   UNL     1      18.136 -34.582 -17.448  0.00  0.00    -0.545 OA
ENDBRANCH   6   7
BRANCH   1  10
ATOM     10  C   UNL     1      20.502 -36.553 -19.001  0.00  0.00    +0.071 C 
BRANCH  10  11
ATOM     11  C   UNL     1      21.927 -36.531 -18.472  0.00  0.00    -0.043 A 
ATOM     12  C   UNL     1      22.220 -37.063 -17.207  0.00  0.00    +0.004 A 
ATOM     13  C   UNL     1      23.527 -37.052 -16.720  0.00  0.00    +0.000 A 
ATOM     14  C   UNL     1      24.554 -36.508 -17.489  0.00  0.00    +0.000 A 
ATOM     15  C   UNL     1      24.274 -35.976 -18.748  0.00  0.00    +0.000 A 
ATOM     16  C   UNL     1      22.967 -35.987 -19.238  0.00  0.00    +0.004 A 
ENDBRANCH  10  11
ENDBRANCH   1  10
TORSDOF 3
ENDMDL
MODEL 3
REMARK VINA RESULT:    -5.742      2.782      6.076
REMARK INTER + INTRA:          -7.304
REMARK INTER:                  -6.826
REMARK INTRA:                  -0.478
REMARK UNBOUND:                -0.555
REMARK  Name = 
REMARK  3 active torsions:
REMARK  status: ('A' for Active; 'I' for Inactive)
REMARK    1  A    between atoms: C_1  and  C_7
REMARK    2  A    between atoms: C_7  and  C_8
REMARK    3  A    between atoms: C_9  and  C_14
REMARK                            x       y       z     vdW  Elec       q    Type
REMARK                         _______ _______ _______ _____ _____    ______ ____
ROOT
ATOM      1  C   UNL     1      20.006 -34.797 -22.445  0.00  0.00    -0.034 A 
ATOM      2  C   UNL     1      19.271 -33.679 -22.894  0.00  0.00    +0.004 A 
ATOM      3  C   UNL     1      19.680 -32.935 -24.003  0.00  0.00    +0.000 A 
ATOM      4  C   UNL     1      20.827 -33.299 -24.696  0.00  0.00    +0.001 A 
ATOM      5  C   UNL     1      21.552 -34.417 -24.291  0.00  0.00    +0.010 A 
ATOM      6  C   UNL     1      21.151 -35.194 -23.183  0.00  0.00    +0.001 A 
ENDROOT
BRANCH   6   7
ATOM      7  C   UNL     1      21.971 -36.430 -22.851  0.00  0.00    +0.072 C 
ATOM      8  O   UNL     1      21.842 -37.442 -23.609  0.00  0.00    -0.545 OA
ATOM      9  O   UNL     1      22.751 -36.349 -21.850  0.00  0.00    -0.545 OA
ENDBRANCH   6   7
BRANCH   1  10
ATOM     10  C   UNL     1      19.561 -35.588 -21.223  0.00  0.00    +0.071 C 
BRANCH  10  11
ATOM     11  C   UNL     1      19.191 -34.776 -19.993  0.00  0.00    -0.043 A 
ATOM     12  C   UNL     1      20.172 -34.435 -19.048  0.00  0.00    +0.004 A 
ATOM     13  C   UNL     1      19.839 -33.685 -17.921  0.00  0.00    +0.000 A 
ATOM     14  C   UNL     1      18.523 -33.268 -17.723  0.00  0.00    +0.000 A 
ATOM     15  C   UNL     1      17.540 -33.601 -18.655  0.00  0.00    +0.000 A 
ATOM     16  C   UNL     1      17.871 -34.352 -19.784  0.00  0.00    +0.004 A 
ENDBRANCH  10  11
ENDBRANCH   1  10
TORSDOF 3
ENDMDL
MODEL 4
REMARK VINA RESULT:    -5.697      1.624      2.677
REMARK INTER + INTRA:          -7.252
REMARK INTER:                  -6.792
REMARK INTRA:                  -0.460
REMARK UNBOUND:                -0.555
REMARK  Name = 
REMARK  3 active torsions:
REMARK  status: ('A' for Active; 'I' for Inactive)
REMARK    1  A    between atoms: C_1  and  C_7
REMARK    2  A    between atoms: C_7  and  C_8
REMARK    3  A    between atoms: C_9  and  C_14
REMARK                            x       y       z     vdW  Elec       q    Type
REMARK                         _______ _______ _______ _____ _____    ______ ____
ROOT
ATOM      1  C   UNL     1      20.462 -35.054 -22.624  0.00  0.00    -0.034 A 
ATOM      2  C   UNL     1      20.671 -35.588 -21.335  0.00  0.00    +0.004 A 
ATOM      3  C   UNL     1      20.141 -34.976 -20.197  0.00  0.00    +0.000 A 
ATOM      4  C   UNL     1      19.380 -33.821 -20.323  0.00  0.00    +0.001 A 
ATOM      5  C   UNL     1      19.133 -33.292 -21.588  0.00  0.00    +0.010 A 
ATOM      6  C   UNL     1      19.645 -33.901 -22.754  0.00  0.00    +0.001 A 
ENDROOT
BRANCH   6   7
ATOM      7  C   UNL     1      19.274 -33.287 -24.094  0.00  0.00    +0.072 C 
ATOM      8  O   UNL     1      20.147 -32.565 -24.672  0.00  0.00    -0.545 OA
ATOM      9  O   UNL     1      18.122 -33.565 -24.553  0.00  0.00    -0.545 OA
ENDBRANCH   6   7
BRANCH   1  10
ATOM     10  C   UNL     1      21.061 -35.720 -23.855  0.00  0.00    +0.071 C 
BRANCH  10  11
ATOM     11  C   UNL     1      20.288 -36.896 -24.428  0.00  0.00    -0.043 A 
ATOM     12  C   UNL     1      19.352 -37.581 -23.638  0.00  0.00    +0.004 A 
ATOM     13  C   UNL     1      18.635 -38.657 -24.162  0.00  0.00    +0.000 A 
ATOM     14  C   UNL     1      18.848 -39.062 -25.479  0.00  0.00    +0.000 A 
ATOM     15  C   UNL     1      19.776 -38.390 -26.273  0.00  0.00    +0.000 A 
ATOM     16  C   UNL     1      20.494 -37.312 -25.751  0.00  0.00    +0.004 A 
ENDBRANCH  10  11
ENDBRANCH   1  10
TORSDOF 3
ENDMDL
MODEL 5
REMARK VINA RESULT:    -5.673      2.580      4.683
REMARK INTER + INTRA:          -7.223
REMARK INTER:                  -6.706
REMARK INTRA:                  -0.517
REMARK UNBOUND:                -0.555
REMARK  Name = 
REMARK  3 active torsions:
REMARK  status: ('A' for Active; 'I' for Inactive)
REMARK    1  A    between atoms: C_1  and  C_7
REMARK    2  A    between atoms: C_7  and  C_8
REMARK    3  A    between atoms: C_9  and  C_14
REMARK                            x       y       z     vdW  Elec       q    Type
REMARK                         _______ _______ _______ _____ _____    ______ ____
ROOT
ATOM      1  C   UNL     1      20.261 -34.996 -22.647  0.00  0.00    -0.034 A 
ATOM      2  C   UNL     1      20.916 -35.160 -23.886  0.00  0.00    +0.004 A 
ATOM      3  C   UNL     1      20.930 -34.143 -24.843  0.00  0.00    +0.000 A 
ATOM      4  C   UNL     1      20.300 -32.934 -24.579  0.00  0.00    +0.001 A 
ATOM      5  C   UNL     1      19.673 -32.737 -23.350  0.00  0.00    +0.010 A 
ATOM      6  C   UNL     1      19.658 -33.744 -22.361  0.00  0.00    +0.001 A 
ENDROOT
BRANCH   6   7
ATOM      7  C   UNL     1      19.002 -33.417 -21.028  0.00  0.00    +0.072 C 
ATOM      8  O   UNL     1      19.544 -32.518 -20.311  0.00  0.00    -0.545 OA
ATOM      9  O   UNL     1      17.939 -34.053 -20.743  0.00  0.00    -0.545 OA
ENDBRANCH   6   7
BRANCH   1  10
ATOM     10  C   UNL     1      20.236 -36.119 -21.620  0.00  0.00    +0.071 C 
BRANCH  10  11
ATOM     11  C   UNL     1      21.407 -36.174 -20.653  0.00  0.00    -0.043 A 
ATOM     12  C   UNL     1      22.662 -36.629 -21.086  0.00  0.00    +0.004 A 
ATOM     13  C   UNL     1      23.742 -36.675 -20.204  0.00  0.00    +0.000 A 
ATOM     14  C   UNL     1      23.579 -36.270 -18.880  0.00  0.00    +0.000 A 
ATOM     15  C   UNL     1      22.337 -35.817 -18.438  0.00  0.00    +0.000 A 
ATOM     16  C   UNL     1      21.255 -35.769 -19.319  0.00  0.00    +0.004 A 
ENDBRANCH  10  11
ENDBRANCH   1  10
TORSDOF 3
ENDMDL
MODEL 6
REMARK VINA RESULT:    -5.605      3.358      5.576
REMARK INTER + INTRA:          -7.144
REMARK INTER:                  -6.460
REMARK INTRA:                  -0.684
REMARK UNBOUND:                -0.555
REMARK  Name = 
REMARK  3 active torsions:
REMARK  status: ('A' for Active; 'I' for Inactive)
REMARK    1  A    between atoms: C_1  and  C_7
REMARK    2  A    between atoms: C_7  and  C_8
REMARK    3  A    between atoms: C_9  and  C_14
REMARK                            x       y       z     vdW  Elec       q    Type
REMARK                         _______ _______ _______ _____ _____    ______ ____
ROOT
ATOM      1  C   UNL     1      20.278 -35.311 -20.002  0.00  0.00    -0.034 A 
ATOM      2  C   UNL     1      19.790 -34.501 -18.955  0.00  0.00    +0.004 A 
ATOM      3  C   UNL     1      19.221 -33.251 -19.204  0.00  0.00    +0.000 A 
ATOM      4  C   UNL     1      19.117 -32.785 -20.508  0.00  0.00    +0.001 A 
ATOM      5  C   UNL     1      19.564 -33.580 -21.562  0.00  0.00    +0.010 A 
ATOM      6  C   UNL     1      20.128 -34.853 -21.337  0.00  0.00    +0.001 A 
ENDROOT
BRANCH   6   7
ATOM      7  C   UNL     1      20.532 -35.673 -22.551  0.00  0.00    +0.072 C 
ATOM      8  O   UNL     1      19.657 -36.442 -23.060  0.00  0.00    -0.545 OA
ATOM      9  O   UNL     1      21.715 -35.507 -22.986  0.00  0.00    -0.545 OA
ENDBRANCH   6   7
BRANCH   1  10
ATOM     10  C   UNL     1      20.914 -36.664 -19.715  0.00  0.00    +0.071 C 
BRANCH  10  11
ATOM     11  C   UNL     1      22.212 -36.645 -18.925  0.00  0.00    -0.043 A 
ATOM     12  C   UNL     1      22.233 -37.072 -17.588  0.00  0.00    +0.004 A 
ATOM     13  C   UNL     1      23.423 -37.063 -16.861  0.00  0.00    +0.000 A 
ATOM     14  C   UNL     1      24.604 -36.626 -17.459  0.00  0.00    +0.000 A 
ATOM     15  C   UNL     1      24.595 -36.199 -18.787  0.00  0.00    +0.000 A 
ATOM     16  C   UNL     1      23.405 -36.208 -19.517  0.00  0.00    +0.004 A 
ENDBRANCH  10  11
ENDBRANCH   1  10
TORSDOF 3
ENDMDL
MODEL 7
REMARK VINA RESULT:    -5.600      5.124      7.277
REMARK INTER + INTRA:          -7.137
REMARK INTER:                  -6.424
REMARK INTRA:                  -0.714
REMARK UNBOUND:                -0.555
REMARK  Name = 
REMARK  3 active torsions:
REMARK  status: ('A' for Active; 'I' for Inactive)
REMARK    1  A    between atoms: C_1  and  C_7
REMARK    2  A    between atoms: C_7  and  C_8
REMARK    3  A    between atoms: C_9  and  C_14
REMARK                            x       y       z     vdW  Elec       q    Type
REMARK                         _______ _______ _______ _____ _____    ______ ____
ROOT
ATOM      1  C   UNL     1      22.119 -36.574 -18.755  0.00  0.00    -0.034 A 
ATOM      2  C   UNL     1      23.304 -36.223 -19.436  0.00  0.00    +0.004 A 
ATOM      3  C   UNL     1      24.541 -36.211 -18.788  0.00  0.00    +0.000 A 
ATOM      4  C   UNL     1      24.624 -36.561 -17.447  0.00  0.00    +0.001 A 
ATOM      5  C   UNL     1      23.473 -36.941 -16.761  0.00  0.00    +0.010 A 
ATOM      6  C   UNL     1      22.213 -36.977 -17.397  0.00  0.00    +0.001 A 
ENDROOT
BRANCH   6   7
ATOM      7  C   UNL     1      21.023 -37.462 -16.586  0.00  0.00    +0.072 C 
ATOM      8  O   UNL     1      20.827 -38.716 -16.522  0.00  0.00    -0.545 OA
ATOM      9  O   UNL     1      20.325 -36.572 -16.005  0.00  0.00    -0.545 OA
ENDBRANCH   6   7
BRANCH   1  10
ATOM     10  C   UNL     1      20.774 -36.566 -19.467  0.00  0.00    +0.071 C 
BRANCH  10  11
ATOM     11  C   UNL     1      20.184 -35.199 -19.776  0.00  0.00    -0.043 A 
ATOM     12  C   UNL     1      19.967 -34.805 -21.105  0.00  0.00    +0.004 A 
ATOM     13  C   UNL     1      19.419 -33.555 -21.393  0.00  0.00    +0.000 A 
ATOM     14  C   UNL     1      19.085 -32.685 -20.357  0.00  0.00    +0.000 A 
ATOM     15  C   UNL     1      19.296 -33.065 -19.032  0.00  0.00    +0.000 A 
ATOM     16  C   UNL     1      19.843 -34.316 -18.741  0.00  0.00    +0.004 A 
ENDBRANCH  10  11
ENDBRANCH   1  10
TORSDOF 3
ENDMDL
MODEL 8
REMARK VINA RESULT:    -5.438      3.001      3.924
REMARK INTER + INTRA:          -6.947
REMARK INTER:                  -6.391
REMARK INTRA:                  -0.555
REMARK UNBOUND:                -0.555
REMARK  Name = 
REMARK  3 active torsions:
REMARK  status: ('A' for Active; 'I' for Inactive)
REMARK    1  A    between atoms: C_1  and  C_7
REMARK    2  A    between atoms: C_7  and  C_8
REMARK    3  A    between atoms: C_9  and  C_14
REMARK                            x       y       z     vdW  Elec       q    Type
REMARK                         _______ _______ _______ _____ _____    ______ ____
ROOT
ATOM      1  C   UNL     1      20.204 -35.128 -21.126  0.00  0.00    -0.034 A 
ATOM      2  C   UNL     1      19.594 -34.075 -21.840  0.00  0.00    +0.004 A 
ATOM      3  C   UNL     1      19.028 -32.980 -21.183  0.00  0.00    +0.000 A 
ATOM      4  C   UNL     1      19.071 -32.906 -19.797  0.00  0.00    +0.001 A 
ATOM      5  C   UNL     1      19.697 -33.918 -19.072  0.00  0.00    +0.010 A 
ATOM      6  C   UNL     1      20.288 -35.027 -19.713  0.00  0.00    +0.001 A 
ENDROOT
BRANCH   6   7
ATOM      7  C   UNL     1      21.000 -36.051 -18.844  0.00  0.00    +0.072 C 
ATOM      8  O   UNL     1      20.305 -37.005 -18.370  0.00  0.00    -0.545 OA
ATOM      9  O   UNL     1      22.250 -35.891 -18.677  0.00  0.00    -0.545 OA
ENDBRANCH   6   7
BRANCH   1  10
ATOM     10  C   UNL     1      20.800 -36.325 -21.852  0.00  0.00    +0.071 C 
BRANCH  10  11
ATOM     11  C   UNL     1      21.057 -36.152 -23.340  0.00  0.00    -0.043 A 
ATOM     12  C   UNL     1      22.195 -35.463 -23.787  0.00  0.00    +0.004 A 
ATOM     13  C   UNL     1      22.439 -35.307 -25.151  0.00  0.00    +0.000 A 
ATOM     14  C   UNL     1      21.548 -35.835 -26.084  0.00  0.00    +0.000 A 
ATOM     15  C   UNL     1      20.413 -36.520 -25.652  0.00  0.00    +0.000 A 
ATOM     16  C   UNL     1      20.167 -36.679 -24.287  0.00  0.00    +0.004 A 
ENDBRANCH  10  11
ENDBRANCH   1  10
TORSDOF 3
ENDMDL
MODEL 9
REMARK VINA RESULT:    -5.429      2.724      4.904
REMARK INTER + INTRA:          -6.936
REMARK INTER:                  -6.230
REMARK INTRA:                  -0.706
REMARK UNBOUND:                -0.555
REMARK  Name = 
REMARK  3 active torsions:
REMARK  status: ('A' for Active; 'I' for Inactive)
REMARK    1  A    between atoms: C_1  and  C_7
REMARK    2  A    between atoms: C_7  and  C_8
REMARK    3  A    between atoms: C_9  and  C_14
REMARK                            x       y       z     vdW  Elec       q    Type
REMARK                         _______ _______ _______ _____ _____    ______ ____
ROOT
ATOM      1  C   UNL     1      20.405 -35.177 -22.850  0.00  0.00    -0.034 A 
ATOM      2  C   UNL     1      19.668 -34.048 -22.433  0.00  0.00    +0.004 A 
ATOM      3  C   UNL     1      19.574 -32.904 -23.229  0.00  0.00    +0.000 A 
ATOM      4  C   UNL     1      20.205 -32.867 -24.465  0.00  0.00    +0.001 A 
ATOM      5  C   UNL     1      20.912 -33.981 -24.912  0.00  0.00    +0.010 A 
ATOM      6  C   UNL     1      21.009 -35.154 -24.134  0.00  0.00    +0.001 A 
ENDROOT
BRANCH   6   7
ATOM      7  C   UNL     1      21.751 -36.339 -24.729  0.00  0.00    +0.072 C 
ATOM      8  O   UNL     1      21.072 -37.186 -25.392  0.00  0.00    -0.545 OA
ATOM      9  O   UNL     1      23.008 -36.381 -24.542  0.00  0.00    -0.545 OA
ENDBRANCH   6   7
BRANCH   1  10
ATOM     10  C   UNL     1      20.516 -36.410 -21.966  0.00  0.00    +0.071 C 
BRANCH  10  11
ATOM     11  C   UNL     1      21.499 -36.325 -20.810  0.00  0.00    -0.043 A 
ATOM     12  C   UNL     1      21.049 -36.007 -19.519  0.00  0.00    +0.004 A 
ATOM     13  C   UNL     1      21.947 -35.933 -18.454  0.00  0.00    +0.000 A 
ATOM     14  C   UNL     1      23.303 -36.174 -18.667  0.00  0.00    +0.000 A 
ATOM     15  C   UNL     1      23.762 -36.491 -19.945  0.00  0.00    +0.000 A 
ATOM     16  C   UNL     1      22.866 -36.565 -21.012  0.00  0.00    +0.004 A 
ENDBRANCH  10  11
ENDBRANCH   1  10
TORSDOF 3
ENDMDL
