
  MJ192500                      

 16 17  0  0  0  0  0  0  0  0999 V2000
   -3.0134   -1.4963    0.0000 C   0  0  0  0  0  0  0  0  0  0  0  0
   -3.7278   -1.9088    0.0000 C   0  0  0  0  0  0  0  0  0  0  0  0
   -3.7278   -2.7339    0.0000 C   0  0  0  0  0  0  0  0  0  0  0  0
   -3.0134   -3.1464    0.0000 C   0  0  0  0  0  0  0  0  0  0  0  0
   -2.2989   -2.7339    0.0000 C   0  0  0  0  0  0  0  0  0  0  0  0
   -2.2989   -1.9088    0.0000 C   0  0  0  0  0  0  0  0  0  0  0  0
   -3.0134   -0.6713    0.0000 C   0  0  0  0  0  0  0  0  0  0  0  0
   -3.7279   -0.2589    0.0000 C   0  0  0  0  0  0  0  0  0  0  0  0
   -3.7279    0.5660    0.0000 C   0  0  0  0  0  0  0  0  0  0  0  0
   -4.4425    0.9786    0.0000 C   0  0  0  0  0  0  0  0  0  0  0  0
   -5.1569    0.5661    0.0000 C   0  0  0  0  0  0  0  0  0  0  0  0
   -5.1569   -0.2588    0.0000 C   0  0  0  0  0  0  0  0  0  0  0  0
   -4.4424   -0.6714    0.0000 C   0  0  0  0  0  0  0  0  0  0  0  0
   -3.0134    0.9785    0.0000 C   0  0  0  0  0  0  0  0  0  0  0  0
   -3.0134    1.8035    0.0000 O   0  0  0  0  0  0  0  0  0  0  0  0
   -2.2990    0.5660    0.0000 O   0  0  0  0  0  0  0  0  0  0  0  0
  1  2  2  0  0  0  0
  2  3  1  0  0  0  0
  3  4  2  0  0  0  0
  4  5  1  0  0  0  0
  5  6  2  0  0  0  0
  6  1  1  0  0  0  0
  1  7  1  0  0  0  0
  7  8  1  0  0  0  0
  9 10  1  0  0  0  0
 10 11  2  0  0  0  0
 11 12  1  0  0  0  0
 12 13  2  0  0  0  0
  8  9  2  0  0  0  0
 13  8  1  0  0  0  0
  9 14  1  0  0  0  0
 14 15  2  0  0  0  0
 14 16  1  0  0  0  0
M  END
