MODEL 1
REMARK VINA RESULT:    -5.672      0.000      0.000
REMARK INTER + INTRA:          -6.880
REMARK INTER:                  -6.715
REMARK INTRA:                  -0.165
REMARK UNBOUND:                -0.213
REMARK  Name = 
REMARK  4 active torsions:
REMARK  status: ('A' for Active; 'I' for Inactive)
REMARK    1  A    between atoms: C_4  and  C_7
REMARK    2  A    between atoms: C_6  and  C_8
REMARK    3  A    between atoms: N_10  and  C_11
REMARK    4  A    between atoms: C_11  and  C_12
REMARK                            x       y       z     vdW  Elec       q    Type
REMARK                         _______ _______ _______ _____ _____    ______ ____
ROOT
ATOM      1  C   UNL     1      19.650 -35.114 -20.934  0.00  0.00    +0.244 C 
ATOM      2  N   UNL     1      19.683 -34.251 -19.875  0.00  0.00    -0.306 N 
ATOM      3  H   UNL     1      19.839 -33.250 -19.967  0.00  0.00    +0.149 HD
ATOM      4  O   UNL     1      19.320 -36.293 -20.852  0.00  0.00    -0.270 OA
ENDROOT
BRANCH   1   6
ATOM      5  C   UNL     1      19.358 -33.443 -22.819  0.00  0.00    +0.013 A 
ATOM      6  C   UNL     1      20.025 -34.540 -22.261  0.00  0.00    +0.037 A 
ATOM      7  C   UNL     1      21.101 -35.114 -22.953  0.00  0.00    +0.016 A 
ATOM      8  C   UNL     1      21.495 -34.623 -24.206  0.00  0.00    -0.050 A 
ATOM      9  C   UNL     1      22.663 -35.234 -24.921  0.00  0.00    +0.044 C 
ATOM     10  C   UNL     1      20.819 -33.524 -24.748  0.00  0.00    +0.003 A 
ATOM     11  C   UNL     1      19.755 -32.939 -24.059  0.00  0.00    +0.001 A 
ENDBRANCH   1   6
BRANCH   2  12
ATOM     12  C   UNL     1      19.314 -34.603 -18.500  0.00  0.00    +0.156 C 
BRANCH  12  13
ATOM     13  C   UNL     1      18.612 -33.434 -17.759  0.00  0.00    +0.059 C 
ATOM     14  O   UNL     1      17.530 -33.030 -18.267  0.00  0.00    -0.548 OA
ATOM     15  O   UNL     1      19.228 -33.029 -16.722  0.00  0.00    -0.548 OA
ENDBRANCH  12  13
ENDBRANCH   2  12
TORSDOF 3
ENDMDL
MODEL 2
REMARK VINA RESULT:    -5.649      0.582      1.793
REMARK INTER + INTRA:          -6.853
REMARK INTER:                  -6.652
REMARK INTRA:                  -0.202
REMARK UNBOUND:                -0.213
REMARK  Name = 
REMARK  4 active torsions:
REMARK  status: ('A' for Active; 'I' for Inactive)
REMARK    1  A    between atoms: C_4  and  C_7
REMARK    2  A    between atoms: C_6  and  C_8
REMARK    3  A    between atoms: N_10  and  C_11
REMARK    4  A    between atoms: C_11  and  C_12
REMARK                            x       y       z     vdW  Elec       q    Type
REMARK                         _______ _______ _______ _____ _____    ______ ____
ROOT
ATOM      1  C   UNL     1      19.717 -35.294 -20.754  0.00  0.00    +0.244 C 
ATOM      2  N   UNL     1      20.045 -34.487 -19.701  0.00  0.00    -0.306 N 
ATOM      3  H   UNL     1      20.544 -33.607 -19.799  0.00  0.00    +0.149 HD
ATOM      4  O   UNL     1      18.991 -36.280 -20.666  0.00  0.00    -0.270 OA
ENDROOT
BRANCH   1   6
ATOM      5  C   UNL     1      21.395 -35.539 -22.638  0.00  0.00    +0.013 A 
ATOM      6  C   UNL     1      20.279 -34.904 -22.081  0.00  0.00    +0.037 A 
ATOM      7  C   UNL     1      19.642 -33.880 -22.798  0.00  0.00    +0.016 A 
ATOM      8  C   UNL     1      20.127 -33.466 -24.046  0.00  0.00    -0.050 A 
ATOM      9  C   UNL     1      19.420 -32.386 -24.808  0.00  0.00    +0.044 C 
ATOM     10  C   UNL     1      21.243 -34.113 -24.589  0.00  0.00    +0.003 A 
ATOM     11  C   UNL     1      21.874 -35.142 -23.889  0.00  0.00    +0.001 A 
ENDBRANCH   1   6
BRANCH   2  12
ATOM     12  C   UNL     1      19.566 -34.672 -18.327  0.00  0.00    +0.156 C 
BRANCH  12  13
ATOM     13  C   UNL     1      18.777 -33.441 -17.806  0.00  0.00    +0.059 C 
ATOM     14  O   UNL     1      17.848 -33.025 -18.552  0.00  0.00    -0.548 OA
ATOM     15  O   UNL     1      19.175 -33.005 -16.679  0.00  0.00    -0.548 OA
ENDBRANCH  12  13
ENDBRANCH   2  12
TORSDOF 3
ENDMDL
MODEL 3
REMARK VINA RESULT:    -4.982      5.269      7.317
REMARK INTER + INTRA:          -6.069
REMARK INTER:                  -5.829
REMARK INTRA:                  -0.239
REMARK UNBOUND:                -0.213
REMARK  Name = 
REMARK  4 active torsions:
REMARK  status: ('A' for Active; 'I' for Inactive)
REMARK    1  A    between atoms: C_4  and  C_7
REMARK    2  A    between atoms: C_6  and  C_8
REMARK    3  A    between atoms: N_10  and  C_11
REMARK    4  A    between atoms: C_11  and  C_12
REMARK                            x       y       z     vdW  Elec       q    Type
REMARK                         _______ _______ _______ _____ _____    ______ ____
ROOT
ATOM      1  C   UNL     1      23.887 -35.755 -25.203  0.00  0.00    +0.244 C 
ATOM      2  N   UNL     1      24.574 -34.723 -25.777  0.00  0.00    -0.306 N 
ATOM      3  H   UNL     1      24.372 -33.742 -25.598  0.00  0.00    +0.149 HD
ATOM      4  O   UNL     1      24.214 -36.935 -25.295  0.00  0.00    -0.270 OA
ENDROOT
BRANCH   1   6
ATOM      5  C   UNL     1      22.366 -36.000 -23.189  0.00  0.00    +0.013 A 
ATOM      6  C   UNL     1      22.682 -35.380 -24.404  0.00  0.00    +0.037 A 
ATOM      7  C   UNL     1      21.860 -34.351 -24.885  0.00  0.00    +0.016 A 
ATOM      8  C   UNL     1      20.712 -33.959 -24.182  0.00  0.00    -0.050 A 
ATOM      9  C   UNL     1      19.857 -32.841 -24.699  0.00  0.00    +0.044 C 
ATOM     10  C   UNL     1      20.412 -34.588 -22.968  0.00  0.00    +0.003 A 
ATOM     11  C   UNL     1      21.233 -35.604 -22.476  0.00  0.00    +0.001 A 
ENDBRANCH   1   6
BRANCH   2  12
ATOM     12  C   UNL     1      25.802 -34.873 -26.564  0.00  0.00    +0.156 C 
BRANCH  12  13
ATOM     13  C   UNL     1      27.067 -34.440 -25.776  0.00  0.00    +0.059 C 
ATOM     14  O   UNL     1      27.269 -33.196 -25.698  0.00  0.00    -0.548 OA
ATOM     15  O   UNL     1      27.746 -35.407 -25.306  0.00  0.00    -0.548 OA
ENDBRANCH  12  13
ENDBRANCH   2  12
TORSDOF 3
ENDMDL
MODEL 4
REMARK VINA RESULT:    -4.941      5.959      7.956
REMARK INTER + INTRA:          -6.021
REMARK INTER:                  -5.788
REMARK INTRA:                  -0.233
REMARK UNBOUND:                -0.213
REMARK  Name = 
REMARK  4 active torsions:
REMARK  status: ('A' for Active; 'I' for Inactive)
REMARK    1  A    between atoms: C_4  and  C_7
REMARK    2  A    between atoms: C_6  and  C_8
REMARK    3  A    between atoms: N_10  and  C_11
REMARK    4  A    between atoms: C_11  and  C_12
REMARK                            x       y       z     vdW  Elec       q    Type
REMARK                         _______ _______ _______ _____ _____    ______ ____
ROOT
ATOM      1  C   UNL     1      25.371 -35.300 -26.064  0.00  0.00    +0.244 C 
ATOM      2  N   UNL     1      25.783 -34.062 -26.472  0.00  0.00    -0.306 N 
ATOM      3  H   UNL     1      25.151 -33.280 -26.625  0.00  0.00    +0.149 HD
ATOM      4  O   UNL     1      26.133 -36.205 -25.737  0.00  0.00    -0.270 OA
ENDROOT
BRANCH   1   6
ATOM      5  C   UNL     1      23.220 -36.336 -26.917  0.00  0.00    +0.013 A 
ATOM      6  C   UNL     1      23.895 -35.516 -26.005  0.00  0.00    +0.037 A 
ATOM      7  C   UNL     1      23.173 -34.891 -24.978  0.00  0.00    +0.016 A 
ATOM      8  C   UNL     1      21.784 -35.051 -24.875  0.00  0.00    -0.050 A 
ATOM      9  C   UNL     1      21.031 -34.393 -23.757  0.00  0.00    +0.044 C 
ATOM     10  C   UNL     1      21.125 -35.876 -25.794  0.00  0.00    +0.003 A 
ATOM     11  C   UNL     1      21.839 -36.513 -26.810  0.00  0.00    +0.001 A 
ENDBRANCH   1   6
BRANCH   2  12
ATOM     12  C   UNL     1      27.182 -33.635 -26.560  0.00  0.00    +0.156 C 
BRANCH  12  13
ATOM     13  C   UNL     1      27.722 -33.096 -25.208  0.00  0.00    +0.059 C 
ATOM     14  O   UNL     1      28.922 -33.382 -24.941  0.00  0.00    -0.548 OA
ATOM     15  O   UNL     1      26.873 -32.429 -24.536  0.00  0.00    -0.548 OA
ENDBRANCH  12  13
ENDBRANCH   2  12
TORSDOF 3
ENDMDL
MODEL 5
REMARK VINA RESULT:    -4.839      6.243      7.843
REMARK INTER + INTRA:          -5.901
REMARK INTER:                  -5.695
REMARK INTRA:                  -0.206
REMARK UNBOUND:                -0.213
REMARK  Name = 
REMARK  4 active torsions:
REMARK  status: ('A' for Active; 'I' for Inactive)
REMARK    1  A    between atoms: C_4  and  C_7
REMARK    2  A    between atoms: C_6  and  C_8
REMARK    3  A    between atoms: N_10  and  C_11
REMARK    4  A    between atoms: C_11  and  C_12
REMARK                            x       y       z     vdW  Elec       q    Type
REMARK                         _______ _______ _______ _____ _____    ______ ____
ROOT
ATOM      1  C   UNL     1      25.130 -35.308 -25.970  0.00  0.00    +0.244 C 
ATOM      2  N   UNL     1      25.643 -34.067 -26.223  0.00  0.00    -0.306 N 
ATOM      3  H   UNL     1      25.123 -33.203 -26.087  0.00  0.00    +0.149 HD
ATOM      4  O   UNL     1      25.790 -36.343 -25.989  0.00  0.00    -0.270 OA
ENDROOT
BRANCH   1   6
ATOM      5  C   UNL     1      23.102 -34.532 -24.660  0.00  0.00    +0.013 A 
ATOM      6  C   UNL     1      23.676 -35.362 -25.630  0.00  0.00    +0.037 A 
ATOM      7  C   UNL     1      22.863 -36.263 -26.332  0.00  0.00    +0.016 A 
ATOM      8  C   UNL     1      21.493 -36.364 -26.053  0.00  0.00    -0.050 A 
ATOM      9  C   UNL     1      20.634 -37.316 -26.830  0.00  0.00    +0.044 C 
ATOM     10  C   UNL     1      20.934 -35.525 -25.082  0.00  0.00    +0.003 A 
ATOM     11  C   UNL     1      21.735 -34.617 -24.388  0.00  0.00    +0.001 A 
ENDBRANCH   1   6
BRANCH   2  12
ATOM     12  C   UNL     1      27.049 -33.793 -26.534  0.00  0.00    +0.156 C 
BRANCH  12  13
ATOM     13  C   UNL     1      27.834 -33.261 -25.305  0.00  0.00    +0.059 C 
ATOM     14  O   UNL     1      28.996 -33.729 -25.150  0.00  0.00    -0.548 OA
ATOM     15  O   UNL     1      27.195 -32.414 -24.605  0.00  0.00    -0.548 OA
ENDBRANCH  12  13
ENDBRANCH   2  12
TORSDOF 3
ENDMDL
MODEL 6
REMARK VINA RESULT:    -4.819      3.246      5.813
REMARK INTER + INTRA:          -5.878
REMARK INTER:                  -5.644
REMARK INTRA:                  -0.234
REMARK UNBOUND:                -0.213
REMARK  Name = 
REMARK  4 active torsions:
REMARK  status: ('A' for Active; 'I' for Inactive)
REMARK    1  A    between atoms: C_4  and  C_7
REMARK    2  A    between atoms: C_6  and  C_8
REMARK    3  A    between atoms: N_10  and  C_11
REMARK    4  A    between atoms: C_11  and  C_12
REMARK                            x       y       z     vdW  Elec       q    Type
REMARK                         _______ _______ _______ _____ _____    ______ ____
ROOT
ATOM      1  C   UNL     1      19.792 -34.296 -23.449  0.00  0.00    +0.244 C 
ATOM      2  N   UNL     1      20.926 -34.917 -23.892  0.00  0.00    -0.306 N 
ATOM      3  H   UNL     1      21.627 -35.320 -23.274  0.00  0.00    +0.149 HD
ATOM      4  O   UNL     1      18.873 -33.939 -24.180  0.00  0.00    -0.270 OA
ENDROOT
BRANCH   1   6
ATOM      5  C   UNL     1      19.097 -32.939 -21.423  0.00  0.00    +0.013 A 
ATOM      6  C   UNL     1      19.695 -34.079 -21.975  0.00  0.00    +0.037 A 
ATOM      7  C   UNL     1      20.201 -35.070 -21.122  0.00  0.00    +0.016 A 
ATOM      8  C   UNL     1      20.144 -34.919 -19.729  0.00  0.00    -0.050 A 
ATOM      9  C   UNL     1      20.669 -35.999 -18.832  0.00  0.00    +0.044 C 
ATOM     10  C   UNL     1      19.541 -33.775 -19.195  0.00  0.00    +0.003 A 
ATOM     11  C   UNL     1      19.023 -32.790 -20.037  0.00  0.00    +0.001 A 
ENDBRANCH   1   6
BRANCH   2  12
ATOM     12  C   UNL     1      21.198 -35.259 -25.292  0.00  0.00    +0.156 C 
BRANCH  12  13
ATOM     13  C   UNL     1      20.997 -36.771 -25.581  0.00  0.00    +0.059 C 
ATOM     14  O   UNL     1      20.075 -37.059 -26.394  0.00  0.00    -0.548 OA
ATOM     15  O   UNL     1      21.796 -37.534 -24.951  0.00  0.00    -0.548 OA
ENDBRANCH  12  13
ENDBRANCH   2  12
TORSDOF 3
ENDMDL
MODEL 7
REMARK VINA RESULT:    -4.797      1.837      3.021
REMARK INTER + INTRA:          -5.852
REMARK INTER:                  -5.613
REMARK INTRA:                  -0.239
REMARK UNBOUND:                -0.213
REMARK  Name = 
REMARK  4 active torsions:
REMARK  status: ('A' for Active; 'I' for Inactive)
REMARK    1  A    between atoms: C_4  and  C_7
REMARK    2  A    between atoms: C_6  and  C_8
REMARK    3  A    between atoms: N_10  and  C_11
REMARK    4  A    between atoms: C_11  and  C_12
REMARK                            x       y       z     vdW  Elec       q    Type
REMARK                         _______ _______ _______ _____ _____    ______ ____
ROOT
ATOM      1  C   UNL     1      19.818 -35.053 -20.609  0.00  0.00    +0.244 C 
ATOM      2  N   UNL     1      20.764 -35.236 -19.640  0.00  0.00    -0.306 N 
ATOM      3  H   UNL     1      21.761 -35.096 -19.790  0.00  0.00    +0.149 HD
ATOM      4  O   UNL     1      18.609 -35.076 -20.403  0.00  0.00    -0.270 OA
ENDROOT
BRANCH   1   6
ATOM      5  C   UNL     1      21.388 -35.516 -22.546  0.00  0.00    +0.013 A 
ATOM      6  C   UNL     1      20.331 -34.788 -21.986  0.00  0.00    +0.037 A 
ATOM      7  C   UNL     1      19.707 -33.788 -22.746  0.00  0.00    +0.016 A 
ATOM      8  C   UNL     1      20.148 -33.490 -24.043  0.00  0.00    -0.050 A 
ATOM      9  C   UNL     1      19.455 -32.433 -24.850  0.00  0.00    +0.044 C 
ATOM     10  C   UNL     1      21.204 -34.229 -24.588  0.00  0.00    +0.003 A 
ATOM     11  C   UNL     1      21.822 -35.235 -23.843  0.00  0.00    +0.001 A 
ENDBRANCH   1   6
BRANCH   2  12
ATOM     12  C   UNL     1      20.472 -35.468 -18.222  0.00  0.00    +0.156 C 
BRANCH  12  13
ATOM     13  C   UNL     1      20.660 -36.954 -17.814  0.00  0.00    +0.059 C 
ATOM     14  O   UNL     1      21.765 -37.242 -17.277  0.00  0.00    -0.548 OA
ATOM     15  O   UNL     1      19.663 -37.698 -18.081  0.00  0.00    -0.548 OA
ENDBRANCH  12  13
ENDBRANCH   2  12
TORSDOF 3
ENDMDL
MODEL 8
REMARK VINA RESULT:    -4.779      3.071      5.834
REMARK INTER + INTRA:          -5.831
REMARK INTER:                  -5.603
REMARK INTRA:                  -0.227
REMARK UNBOUND:                -0.213
REMARK  Name = 
REMARK  4 active torsions:
REMARK  status: ('A' for Active; 'I' for Inactive)
REMARK    1  A    between atoms: C_4  and  C_7
REMARK    2  A    between atoms: C_6  and  C_8
REMARK    3  A    between atoms: N_10  and  C_11
REMARK    4  A    between atoms: C_11  and  C_12
REMARK                            x       y       z     vdW  Elec       q    Type
REMARK                         _______ _______ _______ _____ _____    ______ ____
ROOT
ATOM      1  C   UNL     1      20.200 -35.458 -22.784  0.00  0.00    +0.244 C 
ATOM      2  N   UNL     1      20.577 -34.706 -23.861  0.00  0.00    -0.306 N 
ATOM      3  H   UNL     1      20.786 -33.712 -23.810  0.00  0.00    +0.149 HD
ATOM      4  O   UNL     1      20.088 -36.680 -22.803  0.00  0.00    -0.270 OA
ENDROOT
BRANCH   1   6
ATOM      5  C   UNL     1      19.428 -33.407 -21.510  0.00  0.00    +0.013 A 
ATOM      6  C   UNL     1      19.940 -34.710 -21.518  0.00  0.00    +0.037 A 
ATOM      7  C   UNL     1      20.198 -35.355 -20.300  0.00  0.00    +0.016 A 
ATOM      8  C   UNL     1      19.979 -34.701 -19.079  0.00  0.00    -0.050 A 
ATOM      9  C   UNL     1      20.238 -35.414 -17.786  0.00  0.00    +0.044 C 
ATOM     10  C   UNL     1      19.465 -33.400 -19.089  0.00  0.00    +0.003 A 
ATOM     11  C   UNL     1      19.194 -32.755 -20.297  0.00  0.00    +0.001 A 
ENDBRANCH   1   6
BRANCH   2  12
ATOM     12  C   UNL     1      20.916 -35.249 -25.180  0.00  0.00    +0.156 C 
BRANCH  12  13
ATOM     13  C   UNL     1      22.449 -35.327 -25.411  0.00  0.00    +0.059 C 
ATOM     14  O   UNL     1      22.828 -36.086 -26.346  0.00  0.00    -0.548 OA
ATOM     15  O   UNL     1      23.134 -34.607 -24.617  0.00  0.00    -0.548 OA
ENDBRANCH  12  13
ENDBRANCH   2  12
TORSDOF 3
ENDMDL
MODEL 9
REMARK VINA RESULT:    -4.478      4.154      5.792
REMARK INTER + INTRA:          -5.476
REMARK INTER:                  -5.263
REMARK INTRA:                  -0.213
REMARK UNBOUND:                -0.213
REMARK  Name = 
REMARK  4 active torsions:
REMARK  status: ('A' for Active; 'I' for Inactive)
REMARK    1  A    between atoms: C_4  and  C_7
REMARK    2  A    between atoms: C_6  and  C_8
REMARK    3  A    between atoms: N_10  and  C_11
REMARK    4  A    between atoms: C_11  and  C_12
REMARK                            x       y       z     vdW  Elec       q    Type
REMARK                         _______ _______ _______ _____ _____    ______ ____
ROOT
ATOM      1  C   UNL     1      21.897 -36.672 -23.687  0.00  0.00    +0.244 C 
ATOM      2  N   UNL     1      21.227 -37.719 -23.120  0.00  0.00    -0.306 N 
ATOM      3  H   UNL     1      20.257 -37.670 -22.817  0.00  0.00    +0.149 HD
ATOM      4  O   UNL     1      23.014 -36.760 -24.188  0.00  0.00    -0.270 OA
ENDROOT
BRANCH   1   6
ATOM      5  C   UNL     1      21.188 -34.513 -24.812  0.00  0.00    +0.013 A 
ATOM      6  C   UNL     1      21.181 -35.361 -23.698  0.00  0.00    +0.037 A 
ATOM      7  C   UNL     1      20.459 -34.989 -22.555  0.00  0.00    +0.016 A 
ATOM      8  C   UNL     1      19.772 -33.768 -22.504  0.00  0.00    -0.050 A 
ATOM      9  C   UNL     1      18.986 -33.397 -21.282  0.00  0.00    +0.044 C 
ATOM     10  C   UNL     1      19.787 -32.933 -23.627  0.00  0.00    +0.003 A 
ATOM     11  C   UNL     1      20.493 -33.302 -24.773  0.00  0.00    +0.001 A 
ENDBRANCH   1   6
BRANCH   2  12
ATOM     12  C   UNL     1      21.734 -39.092 -23.044  0.00  0.00    +0.156 C 
BRANCH  12  13
ATOM     13  C   UNL     1      20.980 -40.055 -24.000  0.00  0.00    +0.059 C 
ATOM     14  O   UNL     1      19.726 -39.921 -24.040  0.00  0.00    -0.548 OA
ATOM     15  O   UNL     1      21.734 -40.866 -24.626  0.00  0.00    -0.548 OA
ENDBRANCH  12  13
ENDBRANCH   2  12
TORSDOF 3
ENDMDL
