
  MJ192500                      

 14 14  0  0  0  0  0  0  0  0999 V2000
   -4.4420    0.6687    0.0000 C   0  0  0  0  0  0  0  0  0  0  0  0
   -5.1564    0.2562    0.0000 C   0  0  0  0  0  0  0  0  0  0  0  0
   -5.1564   -0.5688    0.0000 C   0  0  0  0  0  0  0  0  0  0  0  0
   -4.4420   -0.9813    0.0000 C   0  0  0  0  0  0  0  0  0  0  0  0
   -3.7275   -0.5688    0.0000 C   0  0  0  0  0  0  0  0  0  0  0  0
   -3.7275    0.2562    0.0000 C   0  0  0  0  0  0  0  0  0  0  0  0
   -4.4420   -1.8063    0.0000 C   0  0  0  0  0  0  0  0  0  0  0  0
   -3.0130    0.6688    0.0000 C   0  0  0  0  0  0  0  0  0  0  0  0
   -3.0130    1.4938    0.0000 O   0  0  0  0  0  0  0  0  0  0  0  0
   -2.2593    0.3332    0.0000 N   0  0  0  0  0  0  0  0  0  0  0  0
   -1.5449    0.7457    0.0000 C   0  0  0  0  0  0  0  0  0  0  0  0
   -0.8304    0.3332    0.0000 C   0  0  0  0  0  0  0  0  0  0  0  0
   -0.1159    0.7457    0.0000 O   0  0  0  0  0  0  0  0  0  0  0  0
   -0.8304   -0.4917    0.0000 O   0  0  0  0  0  0  0  0  0  0  0  0
  1  2  2  0  0  0  0
  2  3  1  0  0  0  0
  3  4  2  0  0  0  0
  4  5  1  0  0  0  0
  5  6  2  0  0  0  0
  6  1  1  0  0  0  0
  4  7  1  0  0  0  0
  6  8  1  0  0  0  0
 11 12  1  0  0  0  0
 12 13  1  0  0  0  0
 12 14  2  0  0  0  0
  8  9  2  0  0  0  0
  8 10  1  0  0  0  0
 10 11  1  0  0  0  0
M  END
