
  MJ192500                      

 11 11  0  0  0  0  0  0  0  0999 V2000
   -5.3731   -0.3792    0.0000 N   0  0  0  0  0  0  0  0  0  0  0  0
   -5.6279   -1.1639    0.0000 C   0  0  0  0  0  0  0  0  0  0  0  0
   -4.9605   -1.6488    0.0000 N   0  0  0  0  0  0  0  0  0  0  0  0
   -4.2931   -1.1639    0.0000 C   0  0  0  0  0  0  0  0  0  0  0  0
   -4.5481   -0.3793    0.0000 C   0  0  0  0  0  0  0  0  0  0  0  0
   -3.9349    0.1726    0.0000 C   0  0  0  0  0  0  0  0  0  0  0  0
   -3.1813   -0.1629    0.0000 C   0  0  0  0  0  0  0  0  0  0  0  0
   -3.0950   -0.9834    0.0000 N   0  0  0  0  0  0  0  0  0  0  0  0
   -2.5138    0.3219    0.0000 C   0  0  0  0  0  0  0  0  0  0  0  0
   -2.6001    1.1424    0.0000 O   0  0  0  0  0  0  0  0  0  0  0  0
   -1.7602   -0.0135    0.0000 O   0  0  0  0  0  0  0  0  0  0  0  0
  4  5  2  0  0  0  0
  2  3  1  0  0  0  0
  3  4  1  0  0  0  0
  1  2  2  0  0  0  0
  1  5  1  0  0  0  0
  5  6  1  0  0  0  0
  6  7  1  0  0  0  0
  7  9  1  0  0  0  0
  7  8  1  0  0  0  0
  9 11  1  0  0  0  0
  9 10  2  0  0  0  0
M  END
