MODEL 1
REMARK VINA RESULT:    -4.175      0.000      0.000
REMARK INTER + INTRA:          -5.374
REMARK INTER:                  -5.201
REMARK INTRA:                  -0.173
REMARK UNBOUND:                -0.345
REMARK  Name = 
REMARK  4 active torsions:
REMARK  status: ('A' for Active; 'I' for Inactive)
REMARK    1  A    between atoms: CG_5  and  CB_6
REMARK    2  A    between atoms: CB_6  and  CA_7
REMARK    3  A    between atoms: CA_7  and  N_8
REMARK    4  A    between atoms: CA_7  and  C_9
REMARK                            x       y       z     vdW  Elec       q    Type
REMARK                         _______ _______ _______ _____ _____    ______ ____
ROOT
ATOM      1  CA  HIS A   1      18.166 -33.537 -19.512  0.00  0.00    +0.113 C 
ENDROOT
BRANCH   1   2
ATOM      2  N   HIS A   1      17.009 -32.558 -19.363  0.00  0.00    +0.225 N 
ATOM      3  H1  HIS A   1      17.242 -31.636 -19.764  0.00  0.00    +0.200 HD
ATOM      4  H2  HIS A   1      16.145 -32.944 -19.738  0.00  0.00    +0.200 HD
ATOM      5  H3  HIS A   1      16.888 -32.515 -18.329  0.00  0.00    +0.200 HD
ENDBRANCH   1   2
BRANCH   1   6
ATOM      6  C   HIS A   1      18.836 -33.770 -18.140  0.00  0.00    +0.090 C 
ATOM      7  OXT HIS A   1      18.058 -34.427 -17.376  0.00  0.00    -0.544 OA
ATOM      8  O   HIS A   1      19.993 -33.322 -17.984  0.00  0.00    -0.544 OA
ENDBRANCH   1   6
BRANCH   1   9
ATOM      9  CB  HIS A   1      19.247 -32.938 -20.412  0.00  0.00    +0.117 C 
BRANCH   9  11
ATOM     10  ND1 HIS A   1      20.077 -35.073 -21.393  0.00  0.00    -0.241 NA
ATOM     11  CG  HIS A   1      19.544 -33.811 -21.585  0.00  0.00    +0.065 A 
ATOM     12  CD2 HIS A   1      19.379 -33.561 -22.928  0.00  0.00    +0.107 A 
ATOM     13  NE2 HIS A   1      19.796 -34.698 -23.562  0.00  0.00    -0.351 N 
ATOM     14  HE2 HIS A   1      19.800 -34.862 -24.561  0.00  0.00    +0.166 HD
ATOM     15  CE1 HIS A   1      20.200 -35.581 -22.600  0.00  0.00    +0.196 A 
ENDBRANCH   9  11
ENDBRANCH   1   9
TORSDOF 4
ENDMDL
MODEL 2
REMARK VINA RESULT:    -4.057      3.037      3.568
REMARK INTER + INTRA:          -5.233
REMARK INTER:                  -4.803
REMARK INTRA:                  -0.429
REMARK UNBOUND:                -0.345
REMARK  Name = 
REMARK  4 active torsions:
REMARK  status: ('A' for Active; 'I' for Inactive)
REMARK    1  A    between atoms: CG_5  and  CB_6
REMARK    2  A    between atoms: CB_6  and  CA_7
REMARK    3  A    between atoms: CA_7  and  N_8
REMARK    4  A    between atoms: CA_7  and  C_9
REMARK                            x       y       z     vdW  Elec       q    Type
REMARK                         _______ _______ _______ _____ _____    ______ ____
ROOT
ATOM      1  CA  HIS A   1      18.079 -33.356 -17.893  0.00  0.00    +0.113 C 
ENDROOT
BRANCH   1   2
ATOM      2  N   HIS A   1      17.567 -34.677 -17.335  0.00  0.00    +0.225 N 
ATOM      3  H1  HIS A   1      16.590 -34.597 -17.013  0.00  0.00    +0.200 HD
ATOM      4  H2  HIS A   1      17.703 -35.438 -17.998  0.00  0.00    +0.200 HD
ATOM      5  H3  HIS A   1      18.225 -34.854 -16.547  0.00  0.00    +0.200 HD
ENDBRANCH   1   2
BRANCH   1   6
ATOM      6  C   HIS A   1      17.578 -33.171 -19.343  0.00  0.00    +0.090 C 
ATOM      7  OXT HIS A   1      16.645 -33.999 -19.595  0.00  0.00    -0.544 OA
ATOM      8  O   HIS A   1      18.115 -32.269 -20.023  0.00  0.00    -0.544 OA
ENDBRANCH   1   6
BRANCH   1   9
ATOM      9  CB  HIS A   1      19.605 -33.377 -17.974  0.00  0.00    +0.117 C 
BRANCH   9  11
ATOM     10  ND1 HIS A   1      20.312 -35.592 -17.075  0.00  0.00    -0.241 NA
ATOM     11  CG  HIS A   1      20.134 -34.759 -18.166  0.00  0.00    +0.065 A 
ATOM     12  CD2 HIS A   1      20.518 -35.398 -19.323  0.00  0.00    +0.107 A 
ATOM     13  NE2 HIS A   1      20.912 -36.648 -18.933  0.00  0.00    -0.351 N 
ATOM     14  HE2 HIS A   1      21.246 -37.388 -19.537  0.00  0.00    +0.166 HD
ATOM     15  CE1 HIS A   1      20.764 -36.721 -17.576  0.00  0.00    +0.196 A 
ENDBRANCH   9  11
ENDBRANCH   1   9
TORSDOF 4
ENDMDL
MODEL 3
REMARK VINA RESULT:    -3.958      1.687      2.061
REMARK INTER + INTRA:          -5.113
REMARK INTER:                  -4.915
REMARK INTRA:                  -0.198
REMARK UNBOUND:                -0.345
REMARK  Name = 
REMARK  4 active torsions:
REMARK  status: ('A' for Active; 'I' for Inactive)
REMARK    1  A    between atoms: CG_5  and  CB_6
REMARK    2  A    between atoms: CB_6  and  CA_7
REMARK    3  A    between atoms: CA_7  and  N_8
REMARK    4  A    between atoms: CA_7  and  C_9
REMARK                            x       y       z     vdW  Elec       q    Type
REMARK                         _______ _______ _______ _____ _____    ______ ____
ROOT
ATOM      1  CA  HIS A   1      19.261 -33.354 -18.916  0.00  0.00    +0.113 C 
ENDROOT
BRANCH   1   2
ATOM      2  N   HIS A   1      20.259 -33.217 -17.774  0.00  0.00    +0.225 N 
ATOM      3  H1  HIS A   1      19.784 -33.210 -16.858  0.00  0.00    +0.200 HD
ATOM      4  H2  HIS A   1      20.991 -33.922 -17.833  0.00  0.00    +0.200 HD
ATOM      5  H3  HIS A   1      20.713 -32.304 -17.985  0.00  0.00    +0.200 HD
ENDBRANCH   1   2
BRANCH   1   6
ATOM      6  C   HIS A   1      17.821 -33.352 -18.357  0.00  0.00    +0.090 C 
ATOM      7  OXT HIS A   1      17.837 -33.549 -17.099  0.00  0.00    -0.544 OA
ATOM      8  O   HIS A   1      16.892 -33.149 -19.169  0.00  0.00    -0.544 OA
ENDBRANCH   1   6
BRANCH   1   9
ATOM      9  CB  HIS A   1      19.442 -34.704 -19.610  0.00  0.00    +0.117 C 
BRANCH   9  11
ATOM     10  ND1 HIS A   1      19.257 -33.438 -21.749  0.00  0.00    -0.241 NA
ATOM     11  CG  HIS A   1      19.723 -34.548 -21.067  0.00  0.00    +0.065 A 
ATOM     12  CD2 HIS A   1      20.406 -35.382 -21.922  0.00  0.00    +0.107 A 
ATOM     13  NE2 HIS A   1      20.376 -34.758 -23.139  0.00  0.00    -0.351 N 
ATOM     14  HE2 HIS A   1      20.796 -35.093 -23.996  0.00  0.00    +0.166 HD
ATOM     15  CE1 HIS A   1      19.682 -33.591 -22.985  0.00  0.00    +0.196 A 
ENDBRANCH   9  11
ENDBRANCH   1   9
TORSDOF 4
ENDMDL
MODEL 4
REMARK VINA RESULT:    -3.899      3.137      4.763
REMARK INTER + INTRA:          -5.042
REMARK INTER:                  -4.772
REMARK INTRA:                  -0.269
REMARK UNBOUND:                -0.345
REMARK  Name = 
REMARK  4 active torsions:
REMARK  status: ('A' for Active; 'I' for Inactive)
REMARK    1  A    between atoms: CG_5  and  CB_6
REMARK    2  A    between atoms: CB_6  and  CA_7
REMARK    3  A    between atoms: CA_7  and  N_8
REMARK    4  A    between atoms: CA_7  and  C_9
REMARK                            x       y       z     vdW  Elec       q    Type
REMARK                         _______ _______ _______ _____ _____    ______ ____
ROOT
ATOM      1  CA  HIS A   1      19.698 -33.601 -22.954  0.00  0.00    +0.113 C 
ENDROOT
BRANCH   1   2
ATOM      2  N   HIS A   1      18.288 -33.162 -23.325  0.00  0.00    +0.225 N 
ATOM      3  H1  HIS A   1      17.618 -33.368 -22.568  0.00  0.00    +0.200 HD
ATOM      4  H2  HIS A   1      18.267 -32.186 -23.616  0.00  0.00    +0.200 HD
ATOM      5  H3  HIS A   1      18.099 -33.727 -24.180  0.00  0.00    +0.200 HD
ENDBRANCH   1   2
BRANCH   1   6
ATOM      6  C   HIS A   1      20.212 -34.636 -23.978  0.00  0.00    +0.090 C 
ATOM      7  OXT HIS A   1      20.746 -34.046 -24.971  0.00  0.00    -0.544 OA
ATOM      8  O   HIS A   1      20.057 -35.845 -23.697  0.00  0.00    -0.544 OA
ENDBRANCH   1   6
BRANCH   1   9
ATOM      9  CB  HIS A   1      19.685 -34.315 -21.602  0.00  0.00    +0.117 C 
BRANCH   9  11
ATOM     10  ND1 HIS A   1      17.607 -34.261 -20.227  0.00  0.00    -0.241 NA
ATOM     11  CG  HIS A   1      18.780 -33.643 -20.625  0.00  0.00    +0.065 A 
ATOM     12  CD2 HIS A   1      18.908 -32.419 -20.010  0.00  0.00    +0.107 A 
ATOM     13  NE2 HIS A   1      17.808 -32.300 -19.207  0.00  0.00    -0.351 N 
ATOM     14  HE2 HIS A   1      17.589 -31.520 -18.600  0.00  0.00    +0.166 HD
ATOM     15  CE1 HIS A   1      17.059 -33.433 -19.365  0.00  0.00    +0.196 A 
ENDBRANCH   9  11
ENDBRANCH   1   9
TORSDOF 4
ENDMDL
MODEL 5
REMARK VINA RESULT:    -3.758      3.856      5.033
REMARK INTER + INTRA:          -4.872
REMARK INTER:                  -4.529
REMARK INTRA:                  -0.342
REMARK UNBOUND:                -0.345
REMARK  Name = 
REMARK  4 active torsions:
REMARK  status: ('A' for Active; 'I' for Inactive)
REMARK    1  A    between atoms: CG_5  and  CB_6
REMARK    2  A    between atoms: CB_6  and  CA_7
REMARK    3  A    between atoms: CA_7  and  N_8
REMARK    4  A    between atoms: CA_7  and  C_9
REMARK                            x       y       z     vdW  Elec       q    Type
REMARK                         _______ _______ _______ _____ _____    ______ ____
ROOT
ATOM      1  CA  HIS A   1      16.316 -36.863 -18.939  0.00  0.00    +0.113 C 
ENDROOT
BRANCH   1   2
ATOM      2  N   HIS A   1      16.335 -37.110 -17.437  0.00  0.00    +0.225 N 
ATOM      3  H1  HIS A   1      15.434 -37.490 -17.106  0.00  0.00    +0.200 HD
ATOM      4  H2  HIS A   1      17.128 -37.687 -17.165  0.00  0.00    +0.200 HD
ATOM      5  H3  HIS A   1      16.521 -36.158 -17.058  0.00  0.00    +0.200 HD
ENDBRANCH   1   2
BRANCH   1   6
ATOM      6  C   HIS A   1      16.250 -38.210 -19.692  0.00  0.00    +0.090 C 
ATOM      7  OXT HIS A   1      17.302 -38.376 -20.389  0.00  0.00    -0.544 OA
ATOM      8  O   HIS A   1      15.238 -38.920 -19.507  0.00  0.00    -0.544 OA
ENDBRANCH   1   6
BRANCH   1   9
ATOM      9  CB  HIS A   1      17.621 -36.199 -19.377  0.00  0.00    +0.117 C 
BRANCH   9  11
ATOM     10  ND1 HIS A   1      18.126 -34.542 -17.585  0.00  0.00    -0.241 NA
ATOM     11  CG  HIS A   1      17.725 -34.794 -18.885  0.00  0.00    +0.065 A 
ATOM     12  CD2 HIS A   1      17.460 -33.614 -19.542  0.00  0.00    +0.107 A 
ATOM     13  NE2 HIS A   1      17.728 -32.626 -18.634  0.00  0.00    -0.351 N 
ATOM     14  HE2 HIS A   1      17.650 -31.630 -18.789  0.00  0.00    +0.166 HD
ATOM     15  CE1 HIS A   1      18.132 -33.231 -17.476  0.00  0.00    +0.196 A 
ENDBRANCH   9  11
ENDBRANCH   1   9
TORSDOF 4
ENDMDL
MODEL 6
REMARK VINA RESULT:    -3.734      1.644      2.110
REMARK INTER + INTRA:          -4.843
REMARK INTER:                  -4.697
REMARK INTRA:                  -0.145
REMARK UNBOUND:                -0.345
REMARK  Name = 
REMARK  4 active torsions:
REMARK  status: ('A' for Active; 'I' for Inactive)
REMARK    1  A    between atoms: CG_5  and  CB_6
REMARK    2  A    between atoms: CB_6  and  CA_7
REMARK    3  A    between atoms: CA_7  and  N_8
REMARK    4  A    between atoms: CA_7  and  C_9
REMARK                            x       y       z     vdW  Elec       q    Type
REMARK                         _______ _______ _______ _____ _____    ______ ____
ROOT
ATOM      1  CA  HIS A   1      18.630 -33.564 -20.701  0.00  0.00    +0.113 C 
ENDROOT
BRANCH   1   2
ATOM      2  N   HIS A   1      19.252 -32.323 -20.075  0.00  0.00    +0.225 N 
ATOM      3  H1  HIS A   1      19.460 -31.606 -20.787  0.00  0.00    +0.200 HD
ATOM      4  H2  HIS A   1      18.681 -31.965 -19.312  0.00  0.00    +0.200 HD
ATOM      5  H3  HIS A   1      20.118 -32.704 -19.640  0.00  0.00    +0.200 HD
ENDBRANCH   1   2
BRANCH   1   6
ATOM      6  C   HIS A   1      18.081 -34.490 -19.593  0.00  0.00    +0.090 C 
ATOM      7  OXT HIS A   1      17.636 -33.799 -18.621  0.00  0.00    -0.544 OA
ATOM      8  O   HIS A   1      18.129 -35.722 -19.802  0.00  0.00    -0.544 OA
ENDBRANCH   1   6
BRANCH   1   9
ATOM      9  CB  HIS A   1      19.700 -34.372 -21.434  0.00  0.00    +0.117 C 
BRANCH   9  11
ATOM     10  ND1 HIS A   1      20.875 -34.386 -23.632  0.00  0.00    -0.241 NA
ATOM     11  CG  HIS A   1      19.774 -34.016 -22.881  0.00  0.00    +0.065 A 
ATOM     12  CD2 HIS A   1      18.876 -33.320 -23.659  0.00  0.00    +0.107 A 
ATOM     13  NE2 HIS A   1      19.430 -33.287 -24.909  0.00  0.00    -0.351 N 
ATOM     14  HE2 HIS A   1      19.027 -32.861 -25.734  0.00  0.00    +0.166 HD
ATOM     15  CE1 HIS A   1      20.626 -33.946 -24.847  0.00  0.00    +0.196 A 
ENDBRANCH   9  11
ENDBRANCH   1   9
TORSDOF 4
ENDMDL
MODEL 7
REMARK VINA RESULT:    -3.692      2.591      3.790
REMARK INTER + INTRA:          -4.793
REMARK INTER:                  -4.363
REMARK INTRA:                  -0.430
REMARK UNBOUND:                -0.345
REMARK  Name = 
REMARK  4 active torsions:
REMARK  status: ('A' for Active; 'I' for Inactive)
REMARK    1  A    between atoms: CG_5  and  CB_6
REMARK    2  A    between atoms: CB_6  and  CA_7
REMARK    3  A    between atoms: CA_7  and  N_8
REMARK    4  A    between atoms: CA_7  and  C_9
REMARK                            x       y       z     vdW  Elec       q    Type
REMARK                         _______ _______ _______ _____ _____    ______ ____
ROOT
ATOM      1  CA  HIS A   1      20.452 -35.345 -18.387  0.00  0.00    +0.113 C 
ENDROOT
BRANCH   1   2
ATOM      2  N   HIS A   1      20.067 -35.482 -19.854  0.00  0.00    +0.225 N 
ATOM      3  H1  HIS A   1      19.451 -36.295 -20.008  0.00  0.00    +0.200 HD
ATOM      4  H2  HIS A   1      19.675 -34.616 -20.218  0.00  0.00    +0.200 HD
ATOM      5  H3  HIS A   1      20.994 -35.601 -20.315  0.00  0.00    +0.200 HD
ENDBRANCH   1   2
BRANCH   1   6
ATOM      6  C   HIS A   1      19.620 -36.329 -17.534  0.00  0.00    +0.090 C 
ATOM      7  OXT HIS A   1      20.075 -36.373 -16.345  0.00  0.00    -0.544 OA
ATOM      8  O   HIS A   1      18.658 -36.899 -18.093  0.00  0.00    -0.544 OA
ENDBRANCH   1   6
BRANCH   1   9
ATOM      9  CB  HIS A   1      20.099 -33.947 -17.881  0.00  0.00    +0.117 C 
BRANCH   9  11
ATOM     10  ND1 HIS A   1      19.252 -32.698 -19.864  0.00  0.00    -0.241 NA
ATOM     11  CG  HIS A   1      18.987 -33.334 -18.665  0.00  0.00    +0.065 A 
ATOM     12  CD2 HIS A   1      17.642 -33.275 -18.378  0.00  0.00    +0.107 A 
ATOM     13  NE2 HIS A   1      17.076 -32.613 -19.432  0.00  0.00    -0.351 N 
ATOM     14  HE2 HIS A   1      16.094 -32.403 -19.553  0.00  0.00    +0.166 HD
ATOM     15  CE1 HIS A   1      18.080 -32.292 -20.303  0.00  0.00    +0.196 A 
ENDBRANCH   9  11
ENDBRANCH   1   9
TORSDOF 4
ENDMDL
MODEL 8
REMARK VINA RESULT:    -3.546      8.371      9.502
REMARK INTER + INTRA:          -4.617
REMARK INTER:                  -4.272
REMARK INTRA:                  -0.345
REMARK UNBOUND:                -0.345
REMARK  Name = 
REMARK  4 active torsions:
REMARK  status: ('A' for Active; 'I' for Inactive)
REMARK    1  A    between atoms: CG_5  and  CB_6
REMARK    2  A    between atoms: CB_6  and  CA_7
REMARK    3  A    between atoms: CA_7  and  N_8
REMARK    4  A    between atoms: CA_7  and  C_9
REMARK                            x       y       z     vdW  Elec       q    Type
REMARK                         _______ _______ _______ _____ _____    ______ ____
ROOT
ATOM      1  CA  HIS A   1      12.272 -40.403 -20.607  0.00  0.00    +0.113 C 
ENDROOT
BRANCH   1   2
ATOM      2  N   HIS A   1      11.070 -40.853 -19.788  0.00  0.00    +0.225 N 
ATOM      3  H1  HIS A   1      10.732 -40.099 -19.169  0.00  0.00    +0.200 HD
ATOM      4  H2  HIS A   1      10.336 -41.233 -20.382  0.00  0.00    +0.200 HD
ATOM      5  H3  HIS A   1      11.458 -41.656 -19.249  0.00  0.00    +0.200 HD
ENDBRANCH   1   2
BRANCH   1   6
ATOM      6  C   HIS A   1      12.690 -41.524 -21.584  0.00  0.00    +0.090 C 
ATOM      7  OXT HIS A   1      13.908 -41.841 -21.394  0.00  0.00    -0.544 OA
ATOM      8  O   HIS A   1      11.816 -41.956 -22.368  0.00  0.00    -0.544 OA
ENDBRANCH   1   6
BRANCH   1   9
ATOM      9  CB  HIS A   1      13.474 -40.172 -19.692  0.00  0.00    +0.117 C 
BRANCH   9  11
ATOM     10  ND1 HIS A   1      12.417 -37.940 -19.353  0.00  0.00    -0.241 NA
ATOM     11  CG  HIS A   1      13.426 -38.832 -19.036  0.00  0.00    +0.065 A 
ATOM     12  CD2 HIS A   1      14.279 -38.279 -18.109  0.00  0.00    +0.107 A 
ATOM     13  NE2 HIS A   1      13.768 -37.040 -17.839  0.00  0.00    -0.351 N 
ATOM     14  HE2 HIS A   1      14.144 -36.363 -17.189  0.00  0.00    +0.166 HD
ATOM     15  CE1 HIS A   1      12.646 -36.883 -18.605  0.00  0.00    +0.196 A 
ENDBRANCH   9  11
ENDBRANCH   1   9
TORSDOF 4
ENDMDL
MODEL 9
REMARK VINA RESULT:    -3.529      8.293      8.766
REMARK INTER + INTRA:          -4.596
REMARK INTER:                  -4.261
REMARK INTRA:                  -0.335
REMARK UNBOUND:                -0.345
REMARK  Name = 
REMARK  4 active torsions:
REMARK  status: ('A' for Active; 'I' for Inactive)
REMARK    1  A    between atoms: CG_5  and  CB_6
REMARK    2  A    between atoms: CB_6  and  CA_7
REMARK    3  A    between atoms: CA_7  and  N_8
REMARK    4  A    between atoms: CA_7  and  C_9
REMARK                            x       y       z     vdW  Elec       q    Type
REMARK                         _______ _______ _______ _____ _____    ______ ____
ROOT
ATOM      1  CA  HIS A   1      12.556 -38.833 -19.614  0.00  0.00    +0.113 C 
ENDROOT
BRANCH   1   2
ATOM      2  N   HIS A   1      11.420 -38.190 -20.398  0.00  0.00    +0.225 N 
ATOM      3  H1  HIS A   1      10.550 -38.158 -19.844  0.00  0.00    +0.200 HD
ATOM      4  H2  HIS A   1      11.689 -37.279 -20.763  0.00  0.00    +0.200 HD
ATOM      5  H3  HIS A   1      11.334 -38.822 -21.222  0.00  0.00    +0.200 HD
ENDBRANCH   1   2
BRANCH   1   6
ATOM      6  C   HIS A   1      13.253 -37.771 -18.736  0.00  0.00    +0.090 C 
ATOM      7  OXT HIS A   1      14.471 -38.090 -18.543  0.00  0.00    -0.544 OA
ATOM      8  O   HIS A   1      12.569 -36.789 -18.373  0.00  0.00    -0.544 OA
ENDBRANCH   1   6
BRANCH   1   9
ATOM      9  CB  HIS A   1      13.625 -39.355 -20.574  0.00  0.00    +0.117 C 
BRANCH   9  11
ATOM     10  ND1 HIS A   1      12.081 -40.749 -21.946  0.00  0.00    -0.241 NA
ATOM     11  CG  HIS A   1      13.235 -40.657 -21.189  0.00  0.00    +0.065 A 
ATOM     12  CD2 HIS A   1      13.862 -41.881 -21.121  0.00  0.00    +0.107 A 
ATOM     13  NE2 HIS A   1      13.090 -42.725 -21.870  0.00  0.00    -0.351 N 
ATOM     14  HE2 HIS A   1      13.266 -43.706 -22.044  0.00  0.00    +0.166 HD
ATOM     15  CE1 HIS A   1      12.035 -42.000 -22.351  0.00  0.00    +0.196 A 
ENDBRANCH   9  11
ENDBRANCH   1   9
TORSDOF 4
ENDMDL
