
  MJ192500                      

 11 11  0  0  0  0  0  0  0  0999 V2000
   -3.3929    0.7134    0.0000 C   0  0  0  0  0  0  0  0  0  0  0  0
   -4.1073    0.3009    0.0000 C   0  0  0  0  0  0  0  0  0  0  0  0
   -4.1073   -0.5241    0.0000 C   0  0  0  0  0  0  0  0  0  0  0  0
   -3.3929   -0.9366    0.0000 C   0  0  0  0  0  0  0  0  0  0  0  0
   -2.6784   -0.5241    0.0000 C   0  0  0  0  0  0  0  0  0  0  0  0
   -2.6784    0.3009    0.0000 C   0  0  0  0  0  0  0  0  0  0  0  0
   -4.8217   -0.9366    0.0000 Br  0  0  0  0  0  0  0  0  0  0  0  0
   -3.3929   -1.7616    0.0000 N   0  0  0  0  0  0  0  0  0  0  0  0
   -1.9639    0.7134    0.0000 C   0  0  0  0  0  0  0  0  0  0  0  0
   -1.9639    1.5384    0.0000 O   0  0  0  0  0  0  0  0  0  0  0  0
   -1.2494    0.3009    0.0000 O   0  0  0  0  0  0  0  0  0  0  0  0
  1  2  2  0  0  0  0
  2  3  1  0  0  0  0
  3  4  2  0  0  0  0
  4  5  1  0  0  0  0
  5  6  2  0  0  0  0
  6  1  1  0  0  0  0
  6  9  1  0  0  0  0
  9 10  2  0  0  0  0
  9 11  1  0  0  0  0
  4  8  1  0  0  0  0
  3  7  1  0  0  0  0
M  END
