
  MJ192500                      

 12 12  0  0  0  0  0  0  0  0999 V2000
   -2.1429    1.0036    0.0000 C   0  0  0  0  0  0  0  0  0  0  0  0
   -2.8573    0.5911    0.0000 C   0  0  0  0  0  0  0  0  0  0  0  0
   -2.8573   -0.2339    0.0000 C   0  0  0  0  0  0  0  0  0  0  0  0
   -2.1429   -0.6464    0.0000 C   0  0  0  0  0  0  0  0  0  0  0  0
   -1.4284   -0.2339    0.0000 C   0  0  0  0  0  0  0  0  0  0  0  0
   -1.4284    0.5911    0.0000 C   0  0  0  0  0  0  0  0  0  0  0  0
   -3.5717   -0.6464    0.0000 O   0  0  0  0  0  0  0  0  0  0  0  0
   -0.7139   -0.6464    0.0000 O   0  0  0  0  0  0  0  0  0  0  0  0
   -0.7139    1.0036    0.0000 C   0  0  0  0  0  0  0  0  0  0  0  0
   -0.7139    1.8286    0.0000 O   0  0  0  0  0  0  0  0  0  0  0  0
    0.0005    0.5911    0.0000 O   0  0  0  0  0  0  0  0  0  0  0  0
   -4.2862   -0.2339    0.0000 C   0  0  0  0  0  0  0  0  0  0  0  0
  1  2  2  0  0  0  0
  2  3  1  0  0  0  0
  3  4  2  0  0  0  0
  4  5  1  0  0  0  0
  5  6  2  0  0  0  0
  6  1  1  0  0  0  0
  6  9  1  0  0  0  0
  9 10  2  0  0  0  0
  9 11  1  0  0  0  0
  5  8  1  0  0  0  0
  3  7  1  0  0  0  0
  7 12  1  0  0  0  0
M  END
