
  MJ192500                      

 19 22  0  0  0  0  0  0  0  0999 V2000
   -3.0473    1.1609    0.0000 C   0  0  0  0  0  0  0  0  0  0  0  0
   -3.8722    1.1609    0.0000 C   0  0  0  0  0  0  0  0  0  0  0  0
   -4.2848    0.4463    0.0000 C   0  0  0  0  0  0  0  0  0  0  0  0
   -3.8723   -0.2680    0.0000 C   0  0  0  0  0  0  0  0  0  0  0  0
   -3.0473   -0.2680    0.0000 C   0  0  0  0  0  0  0  0  0  0  0  0
   -2.6348    0.4464    0.0000 C   0  0  0  0  0  0  0  0  0  0  0  0
   -1.8097    0.4464    0.0000 C   0  0  0  0  0  0  0  0  0  0  0  0
   -1.3972    1.1608    0.0000 C   0  0  0  0  0  0  0  0  0  0  0  0
   -1.8096    1.8753    0.0000 C   0  0  0  0  0  0  0  0  0  0  0  0
   -2.6347    1.8754    0.0000 C   0  0  0  0  0  0  0  0  0  0  0  0
   -2.6349   -0.9825    0.0000 C   0  0  0  0  0  0  0  0  0  0  0  0
   -1.8098   -0.9825    0.0000 C   0  0  0  0  0  0  0  0  0  0  0  0
   -0.5723   -0.2681    0.0000 C   0  0  0  0  0  0  0  0  0  0  0  0
   -0.1597    0.4462    0.0000 C   0  0  0  0  0  0  0  0  0  0  0  0
   -0.5722    1.1608    0.0000 C   0  0  0  0  0  0  0  0  0  0  0  0
   -1.3973   -0.2679    0.0000 C   0  0  0  0  0  0  0  0  0  0  0  0
   -0.1596    1.8752    0.0000 C   0  0  0  0  0  0  0  0  0  0  0  0
   -0.5720    2.5897    0.0000 O   0  0  0  0  0  0  0  0  0  0  0  0
    0.6653    1.8752    0.0000 O   0  0  0  0  0  0  0  0  0  0  0  0
  1  2  2  0  0  0  0
  2  3  1  0  0  0  0
  3  4  2  0  0  0  0
  4  5  1  0  0  0  0
  5  6  1  0  0  0  0
  6  1  1  0  0  0  0
  7  8  2  0  0  0  0
  8  9  1  0  0  0  0
  9 10  2  0  0  0  0
 10  1  1  0  0  0  0
  6  7  1  0  0  0  0
 11 12  2  0  0  0  0
  5 11  1  0  0  0  0
 13 14  1  0  0  0  0
 14 15  2  0  0  0  0
 15  8  1  0  0  0  0
 12 16  1  0  0  0  0
 16  7  1  0  0  0  0
 16 13  2  0  0  0  0
 15 17  1  0  0  0  0
 17 18  2  0  0  0  0
 17 19  1  0  0  0  0
M  END
