
  MJ192500                      

 12 12  0  0  0  0  0  0  0  0999 V2000
   -1.7746   -0.1794    0.0000 C   0  0  0  0  0  0  0  0  0  0  0  0
   -2.4890   -0.5919    0.0000 C   0  0  0  0  0  0  0  0  0  0  0  0
   -2.4890   -1.4170    0.0000 C   0  0  0  0  0  0  0  0  0  0  0  0
   -1.7746   -1.8295    0.0000 C   0  0  0  0  0  0  0  0  0  0  0  0
   -1.0601   -1.4170    0.0000 C   0  0  0  0  0  0  0  0  0  0  0  0
   -1.0601   -0.5919    0.0000 C   0  0  0  0  0  0  0  0  0  0  0  0
   -3.2034   -1.8294    0.0000 C   0  0  0  0  0  0  0  0  0  0  0  0
   -0.3456   -0.1794    0.0000 C   0  0  0  0  0  0  0  0  0  0  0  0
    0.3688   -0.5919    0.0000 C   0  0  0  0  0  0  0  0  0  0  0  0
    1.0833   -0.1793    0.0000 C   0  0  0  0  0  0  0  0  0  0  0  0
    1.7977   -0.5918    0.0000 O   0  0  0  0  0  0  0  0  0  0  0  0
    1.0832    0.6456    0.0000 O   0  0  0  0  0  0  0  0  0  0  0  0
  1  2  2  0  0  0  0
  2  3  1  0  0  0  0
  3  4  2  0  0  0  0
  4  5  1  0  0  0  0
  5  6  2  0  0  0  0
  6  1  1  0  0  0  0
  3  7  1  0  0  0  0
  6  8  1  0  0  0  0
  8  9  1  0  0  0  0
  9 10  1  0  0  0  0
 10 11  1  0  0  0  0
 10 12  2  0  0  0  0
M  END
