MODEL 1
REMARK VINA RESULT:    -5.301      0.000      0.000
REMARK INTER + INTRA:          -6.410
REMARK INTER:                  -6.220
REMARK INTRA:                  -0.189
REMARK UNBOUND:                -0.179
REMARK  Name = 
REMARK  4 active torsions:
REMARK  status: ('A' for Active; 'I' for Inactive)
REMARK    1  A    between atoms: C_3  and  C_7
REMARK    2  A    between atoms: C_6  and  C_8
REMARK    3  A    between atoms: C_8  and  C_9
REMARK    4  A    between atoms: C_9  and  C_10
REMARK                            x       y       z     vdW  Elec       q    Type
REMARK                         _______ _______ _______ _____ _____    ______ ____
ROOT
ATOM      1  C   UNL     1      19.681 -33.051 -23.328  0.00  0.00    +0.004 A 
ATOM      2  C   UNL     1      19.574 -33.718 -22.103  0.00  0.00    -0.047 A 
ATOM      3  C   UNL     1      20.308 -34.893 -21.904  0.00  0.00    +0.004 A 
ATOM      4  C   UNL     1      21.125 -35.399 -22.917  0.00  0.00    +0.003 A 
ATOM      5  C   UNL     1      21.236 -34.729 -24.141  0.00  0.00    -0.050 A 
ATOM      6  C   UNL     1      22.090 -35.285 -25.240  0.00  0.00    +0.044 C 
ATOM      7  C   UNL     1      20.499 -33.557 -24.342  0.00  0.00    +0.003 A 
ENDROOT
BRANCH   2   8
ATOM      8  C   UNL     1      18.702 -33.162 -21.001  0.00  0.00    +0.041 C 
BRANCH   8   9
ATOM      9  C   UNL     1      19.331 -33.368 -19.631  0.00  0.00    +0.056 C 
BRANCH   9  10
ATOM     10  C   UNL     1      18.183 -33.313 -18.633  0.00  0.00    +0.042 C 
ATOM     11  O   UNL     1      17.053 -33.039 -19.127  0.00  0.00    -0.550 OA
ATOM     12  O   UNL     1      18.503 -33.545 -17.433  0.00  0.00    -0.550 OA
ENDBRANCH   9  10
ENDBRANCH   8   9
ENDBRANCH   2   8
TORSDOF 3
ENDMDL
MODEL 2
REMARK VINA RESULT:    -5.168      1.213      1.988
REMARK INTER + INTRA:          -6.253
REMARK INTER:                  -6.060
REMARK INTRA:                  -0.194
REMARK UNBOUND:                -0.179
REMARK  Name = 
REMARK  4 active torsions:
REMARK  status: ('A' for Active; 'I' for Inactive)
REMARK    1  A    between atoms: C_3  and  C_7
REMARK    2  A    between atoms: C_6  and  C_8
REMARK    3  A    between atoms: C_8  and  C_9
REMARK    4  A    between atoms: C_9  and  C_10
REMARK                            x       y       z     vdW  Elec       q    Type
REMARK                         _______ _______ _______ _____ _____    ______ ____
ROOT
ATOM      1  C   UNL     1      19.285 -33.490 -21.170  0.00  0.00    +0.004 A 
ATOM      2  C   UNL     1      19.918 -34.690 -20.828  0.00  0.00    -0.047 A 
ATOM      3  C   UNL     1      20.635 -35.383 -21.810  0.00  0.00    +0.004 A 
ATOM      4  C   UNL     1      20.707 -34.891 -23.115  0.00  0.00    +0.003 A 
ATOM      5  C   UNL     1      20.078 -33.688 -23.456  0.00  0.00    -0.050 A 
ATOM      6  C   UNL     1      20.130 -33.172 -24.862  0.00  0.00    +0.044 C 
ATOM      7  C   UNL     1      19.358 -32.997 -22.475  0.00  0.00    +0.003 A 
ENDROOT
BRANCH   2   8
ATOM      8  C   UNL     1      19.853 -35.215 -19.412  0.00  0.00    +0.041 C 
BRANCH   8   9
ATOM      9  C   UNL     1      19.777 -34.084 -18.397  0.00  0.00    +0.056 C 
BRANCH   9  10
ATOM     10  C   UNL     1      18.378 -34.152 -17.801  0.00  0.00    +0.042 C 
ATOM     11  O   UNL     1      18.093 -35.238 -17.221  0.00  0.00    -0.550 OA
ATOM     12  O   UNL     1      17.674 -33.116 -17.965  0.00  0.00    -0.550 OA
ENDBRANCH   9  10
ENDBRANCH   8   9
ENDBRANCH   2   8
TORSDOF 3
ENDMDL
MODEL 3
REMARK VINA RESULT:    -5.109      3.494      5.470
REMARK INTER + INTRA:          -6.184
REMARK INTER:                  -5.937
REMARK INTRA:                  -0.247
REMARK UNBOUND:                -0.179
REMARK  Name = 
REMARK  4 active torsions:
REMARK  status: ('A' for Active; 'I' for Inactive)
REMARK    1  A    between atoms: C_3  and  C_7
REMARK    2  A    between atoms: C_6  and  C_8
REMARK    3  A    between atoms: C_8  and  C_9
REMARK    4  A    between atoms: C_9  and  C_10
REMARK                            x       y       z     vdW  Elec       q    Type
REMARK                         _______ _______ _______ _____ _____    ______ ____
ROOT
ATOM      1  C   UNL     1      20.054 -35.191 -21.526  0.00  0.00    +0.004 A 
ATOM      2  C   UNL     1      19.609 -34.135 -22.329  0.00  0.00    -0.047 A 
ATOM      3  C   UNL     1      19.222 -32.935 -21.720  0.00  0.00    +0.004 A 
ATOM      4  C   UNL     1      19.268 -32.799 -20.331  0.00  0.00    +0.003 A 
ATOM      5  C   UNL     1      19.719 -33.853 -19.527  0.00  0.00    -0.050 A 
ATOM      6  C   UNL     1      19.743 -33.719 -18.035  0.00  0.00    +0.044 C 
ATOM      7  C   UNL     1      20.101 -35.054 -20.136  0.00  0.00    +0.003 A 
ENDROOT
BRANCH   2   8
ATOM      8  C   UNL     1      19.574 -34.277 -23.833  0.00  0.00    +0.041 C 
BRANCH   8   9
ATOM      9  C   UNL     1      20.761 -33.589 -24.490  0.00  0.00    +0.056 C 
BRANCH   9  10
ATOM     10  C   UNL     1      21.732 -34.699 -24.865  0.00  0.00    +0.042 C 
ATOM     11  O   UNL     1      21.210 -35.701 -25.430  0.00  0.00    -0.550 OA
ATOM     12  O   UNL     1      22.938 -34.481 -24.561  0.00  0.00    -0.550 OA
ENDBRANCH   9  10
ENDBRANCH   8   9
ENDBRANCH   2   8
TORSDOF 3
ENDMDL
MODEL 4
REMARK VINA RESULT:    -4.999      1.848      2.733
REMARK INTER + INTRA:          -6.054
REMARK INTER:                  -5.813
REMARK INTRA:                  -0.242
REMARK UNBOUND:                -0.179
REMARK  Name = 
REMARK  4 active torsions:
REMARK  status: ('A' for Active; 'I' for Inactive)
REMARK    1  A    between atoms: C_3  and  C_7
REMARK    2  A    between atoms: C_6  and  C_8
REMARK    3  A    between atoms: C_8  and  C_9
REMARK    4  A    between atoms: C_9  and  C_10
REMARK                            x       y       z     vdW  Elec       q    Type
REMARK                         _______ _______ _______ _____ _____    ______ ____
ROOT
ATOM      1  C   UNL     1      20.827 -35.580 -22.265  0.00  0.00    +0.004 A 
ATOM      2  C   UNL     1      20.129 -35.179 -21.121  0.00  0.00    -0.047 A 
ATOM      3  C   UNL     1      19.406 -33.981 -21.152  0.00  0.00    +0.004 A 
ATOM      4  C   UNL     1      19.391 -33.192 -22.304  0.00  0.00    +0.003 A 
ATOM      5  C   UNL     1      20.085 -33.595 -23.451  0.00  0.00    -0.050 A 
ATOM      6  C   UNL     1      20.094 -32.737 -24.679  0.00  0.00    +0.044 C 
ATOM      7  C   UNL     1      20.812 -34.791 -23.418  0.00  0.00    +0.003 A 
ENDROOT
BRANCH   2   8
ATOM      8  C   UNL     1      20.132 -36.041 -19.879  0.00  0.00    +0.041 C 
BRANCH   8   9
ATOM      9  C   UNL     1      21.063 -35.486 -18.812  0.00  0.00    +0.056 C 
BRANCH   9  10
ATOM     10  C   UNL     1      20.229 -35.382 -17.544  0.00  0.00    +0.042 C 
ATOM     11  O   UNL     1      19.213 -34.636 -17.628  0.00  0.00    -0.550 OA
ATOM     12  O   UNL     1      20.659 -36.052 -16.563  0.00  0.00    -0.550 OA
ENDBRANCH   9  10
ENDBRANCH   8   9
ENDBRANCH   2   8
TORSDOF 3
ENDMDL
MODEL 5
REMARK VINA RESULT:    -4.698      4.474      6.404
REMARK INTER + INTRA:          -5.701
REMARK INTER:                  -5.529
REMARK INTRA:                  -0.172
REMARK UNBOUND:                -0.179
REMARK  Name = 
REMARK  4 active torsions:
REMARK  status: ('A' for Active; 'I' for Inactive)
REMARK    1  A    between atoms: C_3  and  C_7
REMARK    2  A    between atoms: C_6  and  C_8
REMARK    3  A    between atoms: C_8  and  C_9
REMARK    4  A    between atoms: C_9  and  C_10
REMARK                            x       y       z     vdW  Elec       q    Type
REMARK                         _______ _______ _______ _____ _____    ______ ____
ROOT
ATOM      1  C   UNL     1      20.731 -33.603 -24.528  0.00  0.00    +0.004 A 
ATOM      2  C   UNL     1      21.433 -34.798 -24.330  0.00  0.00    -0.047 A 
ATOM      3  C   UNL     1      21.281 -35.482 -23.119  0.00  0.00    +0.004 A 
ATOM      4  C   UNL     1      20.452 -34.973 -22.117  0.00  0.00    +0.003 A 
ATOM      5  C   UNL     1      19.746 -33.781 -22.316  0.00  0.00    -0.050 A 
ATOM      6  C   UNL     1      18.877 -33.219 -21.232  0.00  0.00    +0.044 C 
ATOM      7  C   UNL     1      19.900 -33.095 -23.525  0.00  0.00    +0.003 A 
ENDROOT
BRANCH   2   8
ATOM      8  C   UNL     1      22.318 -35.356 -25.421  0.00  0.00    +0.041 C 
BRANCH   8   9
ATOM      9  C   UNL     1      21.503 -36.011 -26.526  0.00  0.00    +0.056 C 
BRANCH   9  10
ATOM     10  C   UNL     1      22.236 -37.297 -26.878  0.00  0.00    +0.042 C 
ATOM     11  O   UNL     1      21.563 -38.356 -26.732  0.00  0.00    -0.550 OA
ATOM     12  O   UNL     1      23.427 -37.145 -27.270  0.00  0.00    -0.550 OA
ENDBRANCH   9  10
ENDBRANCH   8   9
ENDBRANCH   2   8
TORSDOF 3
ENDMDL
MODEL 6
REMARK VINA RESULT:    -4.594      3.102      4.004
REMARK INTER + INTRA:          -5.578
REMARK INTER:                  -5.381
REMARK INTRA:                  -0.198
REMARK UNBOUND:                -0.179
REMARK  Name = 
REMARK  4 active torsions:
REMARK  status: ('A' for Active; 'I' for Inactive)
REMARK    1  A    between atoms: C_3  and  C_7
REMARK    2  A    between atoms: C_6  and  C_8
REMARK    3  A    between atoms: C_8  and  C_9
REMARK    4  A    between atoms: C_9  and  C_10
REMARK                            x       y       z     vdW  Elec       q    Type
REMARK                         _______ _______ _______ _____ _____    ______ ____
ROOT
ATOM      1  C   UNL     1      21.683 -35.156 -23.697  0.00  0.00    +0.004 A 
ATOM      2  C   UNL     1      21.185 -35.370 -22.407  0.00  0.00    -0.047 A 
ATOM      3  C   UNL     1      20.095 -34.611 -21.966  0.00  0.00    +0.004 A 
ATOM      4  C   UNL     1      19.520 -33.647 -22.797  0.00  0.00    +0.003 A 
ATOM      5  C   UNL     1      20.014 -33.436 -24.090  0.00  0.00    -0.050 A 
ATOM      6  C   UNL     1      19.417 -32.383 -24.973  0.00  0.00    +0.044 C 
ATOM      7  C   UNL     1      21.107 -34.192 -24.529  0.00  0.00    +0.003 A 
ENDROOT
BRANCH   2   8
ATOM      8  C   UNL     1      21.797 -36.424 -21.514  0.00  0.00    +0.041 C 
BRANCH   8   9
ATOM      9  C   UNL     1      21.466 -36.180 -20.049  0.00  0.00    +0.056 C 
BRANCH   9  10
ATOM     10  C   UNL     1      22.718 -36.557 -19.270  0.00  0.00    +0.042 C 
ATOM     11  O   UNL     1      22.551 -37.431 -18.374  0.00  0.00    -0.550 OA
ATOM     12  O   UNL     1      23.768 -35.944 -19.615  0.00  0.00    -0.550 OA
ENDBRANCH   9  10
ENDBRANCH   8   9
ENDBRANCH   2   8
TORSDOF 3
ENDMDL
MODEL 7
REMARK VINA RESULT:    -4.535      3.983      6.052
REMARK INTER + INTRA:          -5.509
REMARK INTER:                  -5.285
REMARK INTRA:                  -0.224
REMARK UNBOUND:                -0.179
REMARK  Name = 
REMARK  4 active torsions:
REMARK  status: ('A' for Active; 'I' for Inactive)
REMARK    1  A    between atoms: C_3  and  C_7
REMARK    2  A    between atoms: C_6  and  C_8
REMARK    3  A    between atoms: C_8  and  C_9
REMARK    4  A    between atoms: C_9  and  C_10
REMARK                            x       y       z     vdW  Elec       q    Type
REMARK                         _______ _______ _______ _____ _____    ______ ____
ROOT
ATOM      1  C   UNL     1      20.741 -35.579 -21.582  0.00  0.00    +0.004 A 
ATOM      2  C   UNL     1      20.774 -35.168 -22.919  0.00  0.00    -0.047 A 
ATOM      3  C   UNL     1      20.112 -33.990 -23.284  0.00  0.00    +0.004 A 
ATOM      4  C   UNL     1      19.419 -33.242 -22.329  0.00  0.00    +0.003 A 
ATOM      5  C   UNL     1      19.390 -33.650 -20.990  0.00  0.00    -0.050 A 
ATOM      6  C   UNL     1      18.624 -32.865 -19.970  0.00  0.00    +0.044 C 
ATOM      7  C   UNL     1      20.048 -34.830 -20.627  0.00  0.00    +0.003 A 
ENDROOT
BRANCH   2   8
ATOM      8  C   UNL     1      21.538 -35.968 -23.949  0.00  0.00    +0.041 C 
BRANCH   8   9
ATOM      9  C   UNL     1      21.699 -35.199 -25.252  0.00  0.00    +0.056 C 
BRANCH   9  10
ATOM     10  C   UNL     1      21.433 -36.203 -26.365  0.00  0.00    +0.042 C 
ATOM     11  O   UNL     1      20.316 -36.790 -26.303  0.00  0.00    -0.550 OA
ATOM     12  O   UNL     1      22.364 -36.326 -27.209  0.00  0.00    -0.550 OA
ENDBRANCH   9  10
ENDBRANCH   8   9
ENDBRANCH   2   8
TORSDOF 3
ENDMDL
MODEL 8
REMARK VINA RESULT:    -4.267      5.554      6.911
REMARK INTER + INTRA:          -5.194
REMARK INTER:                  -4.958
REMARK INTRA:                  -0.236
REMARK UNBOUND:                -0.179
REMARK  Name = 
REMARK  4 active torsions:
REMARK  status: ('A' for Active; 'I' for Inactive)
REMARK    1  A    between atoms: C_3  and  C_7
REMARK    2  A    between atoms: C_6  and  C_8
REMARK    3  A    between atoms: C_8  and  C_9
REMARK    4  A    between atoms: C_9  and  C_10
REMARK                            x       y       z     vdW  Elec       q    Type
REMARK                         _______ _______ _______ _____ _____    ______ ____
ROOT
ATOM      1  C   UNL     1      19.548 -36.431 -24.704  0.00  0.00    +0.004 A 
ATOM      2  C   UNL     1      20.804 -36.980 -24.985  0.00  0.00    -0.047 A 
ATOM      3  C   UNL     1      21.914 -36.131 -25.066  0.00  0.00    +0.004 A 
ATOM      4  C   UNL     1      21.767 -34.754 -24.882  0.00  0.00    +0.003 A 
ATOM      5  C   UNL     1      20.511 -34.205 -24.596  0.00  0.00    -0.050 A 
ATOM      6  C   UNL     1      20.347 -32.725 -24.426  0.00  0.00    +0.044 C 
ATOM      7  C   UNL     1      19.402 -35.054 -24.519  0.00  0.00    +0.003 A 
ENDROOT
BRANCH   2   8
ATOM      8  C   UNL     1      20.966 -38.472 -25.168  0.00  0.00    +0.041 C 
BRANCH   8   9
ATOM      9  C   UNL     1      19.724 -39.099 -25.784  0.00  0.00    +0.056 C 
BRANCH   9  10
ATOM     10  C   UNL     1      20.084 -39.404 -27.231  0.00  0.00    +0.042 C 
ATOM     11  O   UNL     1      19.105 -39.663 -27.986  0.00  0.00    -0.550 OA
ATOM     12  O   UNL     1      21.319 -39.365 -27.496  0.00  0.00    -0.550 OA
ENDBRANCH   9  10
ENDBRANCH   8   9
ENDBRANCH   2   8
TORSDOF 3
ENDMDL
MODEL 9
REMARK VINA RESULT:    -4.069      6.390      8.263
REMARK INTER + INTRA:          -4.961
REMARK INTER:                  -4.783
REMARK INTRA:                  -0.179
REMARK UNBOUND:                -0.179
REMARK  Name = 
REMARK  4 active torsions:
REMARK  status: ('A' for Active; 'I' for Inactive)
REMARK    1  A    between atoms: C_3  and  C_7
REMARK    2  A    between atoms: C_6  and  C_8
REMARK    3  A    between atoms: C_8  and  C_9
REMARK    4  A    between atoms: C_9  and  C_10
REMARK                            x       y       z     vdW  Elec       q    Type
REMARK                         _______ _______ _______ _____ _____    ______ ____
ROOT
ATOM      1  C   UNL     1      23.719 -36.228 -26.923  0.00  0.00    +0.004 A 
ATOM      2  C   UNL     1      24.170 -35.318 -25.961  0.00  0.00    -0.047 A 
ATOM      3  C   UNL     1      23.296 -34.913 -24.945  0.00  0.00    +0.004 A 
ATOM      4  C   UNL     1      21.988 -35.402 -24.900  0.00  0.00    +0.003 A 
ATOM      5  C   UNL     1      21.537 -36.316 -25.859  0.00  0.00    -0.050 A 
ATOM      6  C   UNL     1      20.126 -36.819 -25.829  0.00  0.00    +0.044 C 
ATOM      7  C   UNL     1      22.410 -36.717 -26.877  0.00  0.00    +0.003 A 
ENDROOT
BRANCH   2   8
ATOM      8  C   UNL     1      25.591 -34.802 -26.001  0.00  0.00    +0.041 C 
BRANCH   8   9
ATOM      9  C   UNL     1      25.997 -34.383 -27.405  0.00  0.00    +0.056 C 
BRANCH   9  10
ATOM     10  C   UNL     1      27.043 -33.291 -27.229  0.00  0.00    +0.042 C 
ATOM     11  O   UNL     1      27.386 -33.064 -26.035  0.00  0.00    -0.550 OA
ATOM     12  O   UNL     1      27.434 -32.746 -28.300  0.00  0.00    -0.550 OA
ENDBRANCH   9  10
ENDBRANCH   8   9
ENDBRANCH   2   8
TORSDOF 3
ENDMDL
