MODEL 1
REMARK VINA RESULT:    -4.777      0.000      0.000
REMARK INTER + INTRA:          -6.031
REMARK INTER:                  -5.845
REMARK INTRA:                  -0.185
REMARK UNBOUND:                -0.137
REMARK  Name = 
REMARK  4 active torsions:
REMARK  status: ('A' for Active; 'I' for Inactive)
REMARK    1  A    between atoms: C_4  and  C_6
REMARK    2  A    between atoms: C_6  and  C_7
REMARK    3  A    between atoms: C_7  and  C_8
REMARK    4  A    between atoms: C_8  and  C_9
REMARK                            x       y       z     vdW  Elec       q    Type
REMARK                         _______ _______ _______ _____ _____    ______ ____
ROOT
ATOM      1  C   UNL     1      19.555 -34.477 -21.337  0.00  0.00    +0.043 C 
ENDROOT
BRANCH   1   4
ATOM      2  C   UNL     1      20.506 -33.287 -24.807  0.00  0.00    +0.008 A 
ATOM      3  C   UNL     1      19.818 -33.184 -23.565  0.00  0.00    +0.011 A 
ATOM      4  C   UNL     1      20.093 -34.242 -22.722  0.00  0.00    -0.010 A 
ATOM      5  S   UNL     1      21.186 -35.350 -23.437  0.00  0.00    -0.102 S 
ATOM      6  C   UNL     1      21.284 -34.422 -24.870  0.00  0.00    +0.045 A 
ENDBRANCH   1   4
BRANCH   1   7
ATOM      7  C   UNL     1      19.279 -33.156 -20.612  0.00  0.00    +0.011 C 
BRANCH   7   8
ATOM      8  C   UNL     1      19.291 -33.317 -19.094  0.00  0.00    +0.052 C 
BRANCH   8   9
ATOM      9  C   UNL     1      17.920 -33.295 -18.413  0.00  0.00    +0.042 C 
ATOM     10  O   UNL     1      17.918 -33.457 -17.162  0.00  0.00    -0.550 OA
ATOM     11  O   UNL     1      16.950 -33.112 -19.202  0.00  0.00    -0.550 OA
ENDBRANCH   8   9
ENDBRANCH   7   8
ENDBRANCH   1   7
TORSDOF 4
ENDMDL
MODEL 2
REMARK VINA RESULT:    -4.167      3.788      5.664
REMARK INTER + INTRA:          -5.279
REMARK INTER:                  -5.091
REMARK INTRA:                  -0.188
REMARK UNBOUND:                -0.137
REMARK  Name = 
REMARK  4 active torsions:
REMARK  status: ('A' for Active; 'I' for Inactive)
REMARK    1  A    between atoms: C_4  and  C_6
REMARK    2  A    between atoms: C_6  and  C_7
REMARK    3  A    between atoms: C_7  and  C_8
REMARK    4  A    between atoms: C_8  and  C_9
REMARK                            x       y       z     vdW  Elec       q    Type
REMARK                         _______ _______ _______ _____ _____    ______ ____
ROOT
ATOM      1  C   UNL     1      19.833 -34.554 -22.583  0.00  0.00    +0.043 C 
ENDROOT
BRANCH   1   4
ATOM      2  C   UNL     1      19.245 -33.143 -19.115  0.00  0.00    +0.008 A 
ATOM      3  C   UNL     1      19.217 -33.091 -20.538  0.00  0.00    +0.011 A 
ATOM      4  C   UNL     1      19.706 -34.244 -21.117  0.00  0.00    -0.010 A 
ATOM      5  S   UNL     1      20.191 -35.385 -19.935  0.00  0.00    -0.102 S 
ATOM      6  C   UNL     1      19.755 -34.337 -18.655  0.00  0.00    +0.045 A 
ENDBRANCH   1   4
BRANCH   1   7
ATOM      7  C   UNL     1      20.041 -33.280 -23.408  0.00  0.00    +0.011 C 
BRANCH   7   8
ATOM      8  C   UNL     1      20.415 -33.584 -24.856  0.00  0.00    +0.052 C 
BRANCH   8   9
ATOM      9  C   UNL     1      21.425 -34.718 -25.057  0.00  0.00    +0.042 C 
ATOM     10  O   UNL     1      20.988 -35.759 -25.620  0.00  0.00    -0.550 OA
ATOM     11  O   UNL     1      22.586 -34.462 -24.630  0.00  0.00    -0.550 OA
ENDBRANCH   8   9
ENDBRANCH   7   8
ENDBRANCH   1   7
TORSDOF 4
ENDMDL
MODEL 3
REMARK VINA RESULT:    -3.752      5.189      7.004
REMARK INTER + INTRA:          -4.767
REMARK INTER:                  -4.598
REMARK INTRA:                  -0.169
REMARK UNBOUND:                -0.137
REMARK  Name = 
REMARK  4 active torsions:
REMARK  status: ('A' for Active; 'I' for Inactive)
REMARK    1  A    between atoms: C_4  and  C_6
REMARK    2  A    between atoms: C_6  and  C_7
REMARK    3  A    between atoms: C_7  and  C_8
REMARK    4  A    between atoms: C_8  and  C_9
REMARK                            x       y       z     vdW  Elec       q    Type
REMARK                         _______ _______ _______ _____ _____    ______ ____
ROOT
ATOM      1  C   UNL     1      20.413 -36.816 -24.778  0.00  0.00    +0.043 C 
ENDROOT
BRANCH   1   4
ATOM      2  C   UNL     1      20.387 -33.048 -24.370  0.00  0.00    +0.008 A 
ATOM      3  C   UNL     1      20.595 -34.253 -25.100  0.00  0.00    +0.011 A 
ATOM      4  C   UNL     1      20.312 -35.378 -24.351  0.00  0.00    -0.010 A 
ATOM      5  S   UNL     1      19.791 -34.968 -22.771  0.00  0.00    -0.102 S 
ATOM      6  C   UNL     1      19.951 -33.294 -23.087  0.00  0.00    +0.045 A 
ENDBRANCH   1   4
BRANCH   1   7
ATOM      7  C   UNL     1      20.356 -36.952 -26.303  0.00  0.00    +0.011 C 
BRANCH   7   8
ATOM      8  C   UNL     1      20.726 -38.357 -26.772  0.00  0.00    +0.052 C 
BRANCH   8   9
ATOM      9  C   UNL     1      19.548 -39.289 -27.070  0.00  0.00    +0.042 C 
ATOM     10  O   UNL     1      19.404 -39.635 -28.275  0.00  0.00    -0.550 OA
ATOM     11  O   UNL     1      18.861 -39.600 -26.057  0.00  0.00    -0.550 OA
ENDBRANCH   8   9
ENDBRANCH   7   8
ENDBRANCH   1   7
TORSDOF 4
ENDMDL
MODEL 4
REMARK VINA RESULT:    -3.595      5.512      7.127
REMARK INTER + INTRA:          -4.573
REMARK INTER:                  -4.326
REMARK INTRA:                  -0.247
REMARK UNBOUND:                -0.137
REMARK  Name = 
REMARK  4 active torsions:
REMARK  status: ('A' for Active; 'I' for Inactive)
REMARK    1  A    between atoms: C_4  and  C_6
REMARK    2  A    between atoms: C_6  and  C_7
REMARK    3  A    between atoms: C_7  and  C_8
REMARK    4  A    between atoms: C_8  and  C_9
REMARK                            x       y       z     vdW  Elec       q    Type
REMARK                         _______ _______ _______ _____ _____    ______ ____
ROOT
ATOM      1  C   UNL     1      21.474 -35.812 -25.710  0.00  0.00    +0.043 C 
ENDROOT
BRANCH   1   4
ATOM      2  C   UNL     1      19.884 -33.025 -23.692  0.00  0.00    +0.008 A 
ATOM      3  C   UNL     1      20.523 -33.564 -24.845  0.00  0.00    +0.011 A 
ATOM      4  C   UNL     1      20.807 -34.908 -24.709  0.00  0.00    -0.010 A 
ATOM      5  S   UNL     1      20.294 -35.510 -23.190  0.00  0.00    -0.102 S 
ATOM      6  C   UNL     1      19.701 -33.977 -22.714  0.00  0.00    +0.045 A 
ENDBRANCH   1   4
BRANCH   1   7
ATOM      7  C   UNL     1      22.861 -36.251 -25.229  0.00  0.00    +0.011 C 
BRANCH   7   8
ATOM      8  C   UNL     1      23.909 -35.156 -25.414  0.00  0.00    +0.052 C 
BRANCH   8   9
ATOM      9  C   UNL     1      24.869 -35.348 -26.592  0.00  0.00    +0.042 C 
ATOM     10  O   UNL     1      25.777 -34.482 -26.716  0.00  0.00    -0.550 OA
ATOM     11  O   UNL     1      24.627 -36.366 -27.301  0.00  0.00    -0.550 OA
ENDBRANCH   8   9
ENDBRANCH   7   8
ENDBRANCH   1   7
TORSDOF 4
ENDMDL
MODEL 5
REMARK VINA RESULT:    -3.470      6.511      8.376
REMARK INTER + INTRA:          -4.419
REMARK INTER:                  -4.256
REMARK INTRA:                  -0.163
REMARK UNBOUND:                -0.137
REMARK  Name = 
REMARK  4 active torsions:
REMARK  status: ('A' for Active; 'I' for Inactive)
REMARK    1  A    between atoms: C_4  and  C_6
REMARK    2  A    between atoms: C_6  and  C_7
REMARK    3  A    between atoms: C_7  and  C_8
REMARK    4  A    between atoms: C_8  and  C_9
REMARK                            x       y       z     vdW  Elec       q    Type
REMARK                         _______ _______ _______ _____ _____    ______ ____
ROOT
ATOM      1  C   UNL     1      24.820 -35.901 -25.787  0.00  0.00    +0.043 C 
ENDROOT
BRANCH   1   4
ATOM      2  C   UNL     1      21.519 -34.509 -24.551  0.00  0.00    +0.008 A 
ATOM      3  C   UNL     1      22.939 -34.605 -24.566  0.00  0.00    +0.011 A 
ATOM      4  C   UNL     1      23.394 -35.527 -25.488  0.00  0.00    -0.010 A 
ATOM      5  S   UNL     1      22.099 -36.266 -26.332  0.00  0.00    -0.102 S 
ATOM      6  C   UNL     1      20.936 -35.361 -25.463  0.00  0.00    +0.045 A 
ENDBRANCH   1   4
BRANCH   1   7
ATOM      7  C   UNL     1      25.643 -34.678 -26.205  0.00  0.00    +0.011 C 
BRANCH   7   8
ATOM      8  C   UNL     1      27.136 -34.875 -25.956  0.00  0.00    +0.052 C 
BRANCH   8   9
ATOM      9  C   UNL     1      27.898 -33.635 -25.479  0.00  0.00    +0.042 C 
ATOM     10  O   UNL     1      27.253 -32.551 -25.479  0.00  0.00    -0.550 OA
ATOM     11  O   UNL     1      29.094 -33.859 -25.138  0.00  0.00    -0.550 OA
ENDBRANCH   8   9
ENDBRANCH   7   8
ENDBRANCH   1   7
TORSDOF 4
ENDMDL
MODEL 6
REMARK VINA RESULT:    -3.338      4.174      5.903
REMARK INTER + INTRA:          -4.256
REMARK INTER:                  -4.019
REMARK INTRA:                  -0.237
REMARK UNBOUND:                -0.137
REMARK  Name = 
REMARK  4 active torsions:
REMARK  status: ('A' for Active; 'I' for Inactive)
REMARK    1  A    between atoms: C_4  and  C_6
REMARK    2  A    between atoms: C_6  and  C_7
REMARK    3  A    between atoms: C_7  and  C_8
REMARK    4  A    between atoms: C_8  and  C_9
REMARK                            x       y       z     vdW  Elec       q    Type
REMARK                         _______ _______ _______ _____ _____    ______ ____
ROOT
ATOM      1  C   UNL     1      22.905 -35.893 -25.235  0.00  0.00    +0.043 C 
ENDROOT
BRANCH   1   4
ATOM      2  C   UNL     1      26.157 -35.121 -27.021  0.00  0.00    +0.008 A 
ATOM      3  C   UNL     1      25.139 -34.875 -26.057  0.00  0.00    +0.011 A 
ATOM      4  C   UNL     1      24.137 -35.823 -26.095  0.00  0.00    -0.010 A 
ATOM      5  S   UNL     1      24.437 -37.008 -27.295  0.00  0.00    -0.102 S 
ATOM      6  C   UNL     1      25.897 -36.251 -27.764  0.00  0.00    +0.045 A 
ENDBRANCH   1   4
BRANCH   1   7
ATOM      7  C   UNL     1      22.658 -34.570 -24.503  0.00  0.00    +0.011 C 
BRANCH   7   8
ATOM      8  C   UNL     1      21.214 -34.094 -24.642  0.00  0.00    +0.052 C 
BRANCH   8   9
ATOM      9  C   UNL     1      20.177 -34.870 -23.827  0.00  0.00    +0.042 C 
ATOM     10  O   UNL     1      19.299 -35.489 -24.488  0.00  0.00    -0.550 OA
ATOM     11  O   UNL     1      20.336 -34.794 -22.576  0.00  0.00    -0.550 OA
ENDBRANCH   8   9
ENDBRANCH   7   8
ENDBRANCH   1   7
TORSDOF 4
ENDMDL
MODEL 7
REMARK VINA RESULT:    -3.292      4.432      5.272
REMARK INTER + INTRA:          -4.199
REMARK INTER:                  -4.062
REMARK INTRA:                  -0.137
REMARK UNBOUND:                -0.137
REMARK  Name = 
REMARK  4 active torsions:
REMARK  status: ('A' for Active; 'I' for Inactive)
REMARK    1  A    between atoms: C_4  and  C_6
REMARK    2  A    between atoms: C_6  and  C_7
REMARK    3  A    between atoms: C_7  and  C_8
REMARK    4  A    between atoms: C_8  and  C_9
REMARK                            x       y       z     vdW  Elec       q    Type
REMARK                         _______ _______ _______ _____ _____    ______ ____
ROOT
ATOM      1  C   UNL     1      20.546 -36.060 -19.128  0.00  0.00    +0.043 C 
ENDROOT
BRANCH   1   4
ATOM      2  C   UNL     1      19.169 -32.870 -20.642  0.00  0.00    +0.008 A 
ATOM      3  C   UNL     1      19.566 -33.701 -19.557  0.00  0.00    +0.011 A 
ATOM      4  C   UNL     1      20.041 -34.927 -19.979  0.00  0.00    -0.010 A 
ATOM      5  S   UNL     1      20.007 -35.061 -21.687  0.00  0.00    -0.102 S 
ATOM      6  C   UNL     1      19.354 -33.489 -21.858  0.00  0.00    +0.045 A 
ENDBRANCH   1   4
BRANCH   1   7
ATOM      7  C   UNL     1      22.036 -35.899 -18.810  0.00  0.00    +0.011 C 
BRANCH   7   8
ATOM      8  C   UNL     1      22.507 -36.878 -17.739  0.00  0.00    +0.052 C 
BRANCH   8   9
ATOM      9  C   UNL     1      23.999 -37.220 -17.761  0.00  0.00    +0.042 C 
ATOM     10  O   UNL     1      24.290 -38.428 -17.980  0.00  0.00    -0.550 OA
ATOM     11  O   UNL     1      24.762 -36.234 -17.557  0.00  0.00    -0.550 OA
ENDBRANCH   8   9
ENDBRANCH   7   8
ENDBRANCH   1   7
TORSDOF 4
ENDMDL
MODEL 8
REMARK VINA RESULT:    -3.285      4.643      6.077
REMARK INTER + INTRA:          -4.191
REMARK INTER:                  -3.999
REMARK INTRA:                  -0.192
REMARK UNBOUND:                -0.137
REMARK  Name = 
REMARK  4 active torsions:
REMARK  status: ('A' for Active; 'I' for Inactive)
REMARK    1  A    between atoms: C_4  and  C_6
REMARK    2  A    between atoms: C_6  and  C_7
REMARK    3  A    between atoms: C_7  and  C_8
REMARK    4  A    between atoms: C_8  and  C_9
REMARK                            x       y       z     vdW  Elec       q    Type
REMARK                         _______ _______ _______ _____ _____    ______ ____
ROOT
ATOM      1  C   UNL     1      17.540 -37.370 -19.251  0.00  0.00    +0.043 C 
ENDROOT
BRANCH   1   4
ATOM      2  C   UNL     1      13.950 -38.554 -18.979  0.00  0.00    +0.008 A 
ATOM      3  C   UNL     1      15.047 -37.713 -18.639  0.00  0.00    +0.011 A 
ATOM      4  C   UNL     1      16.192 -38.031 -19.342  0.00  0.00    -0.010 A 
ATOM      5  S   UNL     1      15.929 -39.342 -20.413  0.00  0.00    -0.102 S 
ATOM      6  C   UNL     1      14.294 -39.487 -19.932  0.00  0.00    +0.045 A 
ENDBRANCH   1   4
BRANCH   1   7
ATOM      7  C   UNL     1      17.411 -35.845 -19.179  0.00  0.00    +0.011 C 
BRANCH   7   8
ATOM      8  C   UNL     1      17.869 -35.289 -17.834  0.00  0.00    +0.052 C 
BRANCH   8   9
ATOM      9  C   UNL     1      18.292 -33.818 -17.832  0.00  0.00    +0.042 C 
ATOM     10  O   UNL     1      19.456 -33.574 -17.412  0.00  0.00    -0.550 OA
ATOM     11  O   UNL     1      17.409 -33.022 -18.259  0.00  0.00    -0.550 OA
ENDBRANCH   8   9
ENDBRANCH   7   8
ENDBRANCH   1   7
TORSDOF 4
ENDMDL
MODEL 9
REMARK VINA RESULT:    -3.226      8.986      9.682
REMARK INTER + INTRA:          -4.118
REMARK INTER:                  -3.953
REMARK INTRA:                  -0.165
REMARK UNBOUND:                -0.137
REMARK  Name = 
REMARK  4 active torsions:
REMARK  status: ('A' for Active; 'I' for Inactive)
REMARK    1  A    between atoms: C_4  and  C_6
REMARK    2  A    between atoms: C_6  and  C_7
REMARK    3  A    between atoms: C_7  and  C_8
REMARK    4  A    between atoms: C_8  and  C_9
REMARK                            x       y       z     vdW  Elec       q    Type
REMARK                         _______ _______ _______ _____ _____    ______ ____
ROOT
ATOM      1  C   UNL     1      12.175 -40.831 -21.546  0.00  0.00    +0.043 C 
ENDROOT
BRANCH   1   4
ATOM      2  C   UNL     1      14.087 -43.903 -22.676  0.00  0.00    +0.008 A 
ATOM      3  C   UNL     1      12.940 -43.060 -22.619  0.00  0.00    +0.011 A 
ATOM      4  C   UNL     1      13.148 -41.940 -21.840  0.00  0.00    -0.010 A 
ATOM      5  S   UNL     1      14.732 -41.912 -21.187  0.00  0.00    -0.102 S 
ATOM      6  C   UNL     1      15.133 -43.396 -21.938  0.00  0.00    +0.045 A 
ENDBRANCH   1   4
BRANCH   1   7
ATOM      7  C   UNL     1      12.363 -40.283 -20.128  0.00  0.00    +0.011 C 
BRANCH   7   8
ATOM      8  C   UNL     1      12.222 -38.764 -20.072  0.00  0.00    +0.052 C 
BRANCH   8   9
ATOM      9  C   UNL     1      13.062 -38.058 -19.005  0.00  0.00    +0.042 C 
ATOM     10  O   UNL     1      12.515 -37.080 -18.424  0.00  0.00    -0.550 OA
ATOM     11  O   UNL     1      14.212 -38.552 -18.835  0.00  0.00    -0.550 OA
ENDBRANCH   8   9
ENDBRANCH   7   8
ENDBRANCH   1   7
TORSDOF 4
ENDMDL
