
  MJ192500                      

 11 11  0  0  0  0  0  0  0  0999 V2000
   -5.3508   -0.2900    0.0000 C   0  0  0  0  0  0  0  0  0  0  0  0
   -5.6056   -1.0746    0.0000 C   0  0  0  0  0  0  0  0  0  0  0  0
   -4.9382   -1.5595    0.0000 S   0  0  0  0  0  0  0  0  0  0  0  0
   -4.2708   -1.0746    0.0000 C   0  0  0  0  0  0  0  0  0  0  0  0
   -4.5257   -0.2900    0.0000 C   0  0  0  0  0  0  0  0  0  0  0  0
   -3.4862   -1.3295    0.0000 C   0  0  0  0  0  0  0  0  0  0  0  0
   -2.8731   -0.7775    0.0000 C   0  0  0  0  0  0  0  0  0  0  0  0
   -2.1586   -1.1900    0.0000 C   0  0  0  0  0  0  0  0  0  0  0  0
   -1.5455   -0.6380    0.0000 C   0  0  0  0  0  0  0  0  0  0  0  0
   -0.8310   -1.0505    0.0000 O   0  0  0  0  0  0  0  0  0  0  0  0
   -1.6317    0.1824    0.0000 O   0  0  0  0  0  0  0  0  0  0  0  0
  1  2  2  0  0  0  0
  1  5  1  0  0  0  0
  4  5  2  0  0  0  0
  2  3  1  0  0  0  0
  3  4  1  0  0  0  0
  4  6  1  0  0  0  0
  6  7  1  0  0  0  0
  7  8  1  0  0  0  0
  8  9  1  0  0  0  0
  9 11  2  0  0  0  0
  9 10  1  0  0  0  0
M  END
