
  MJ192500                      

 16 17  0  0  0  0  0  0  0  0999 V2000
   -4.9777   -0.2687    0.0000 C   0  0  0  0  0  0  0  0  0  0  0  0
   -5.6921   -0.6812    0.0000 C   0  0  0  0  0  0  0  0  0  0  0  0
   -5.6921   -1.5063    0.0000 C   0  0  0  0  0  0  0  0  0  0  0  0
   -4.9777   -1.9188    0.0000 C   0  0  0  0  0  0  0  0  0  0  0  0
   -4.2632   -1.5063    0.0000 C   0  0  0  0  0  0  0  0  0  0  0  0
   -4.2632   -0.6812    0.0000 C   0  0  0  0  0  0  0  0  0  0  0  0
   -3.5487   -0.2686    0.0000 N   0  0  0  0  0  0  0  0  0  0  0  0
   -2.8342   -0.6811    0.0000 C   0  0  0  0  0  0  0  0  0  0  0  0
   -2.8342   -1.5061    0.0000 C   0  0  0  0  0  0  0  0  0  0  0  0
   -2.1197   -1.9187    0.0000 C   0  0  0  0  0  0  0  0  0  0  0  0
   -1.4052   -1.5062    0.0000 C   0  0  0  0  0  0  0  0  0  0  0  0
   -1.4052   -0.6812    0.0000 C   0  0  0  0  0  0  0  0  0  0  0  0
   -2.1197   -0.2686    0.0000 C   0  0  0  0  0  0  0  0  0  0  0  0
   -4.9777    0.5562    0.0000 C   0  0  0  0  0  0  0  0  0  0  0  0
   -5.6922    0.9687    0.0000 O   0  0  0  0  0  0  0  0  0  0  0  0
   -4.2632    0.9688    0.0000 O   0  0  0  0  0  0  0  0  0  0  0  0
  1  2  2  0  0  0  0
  2  3  1  0  0  0  0
  3  4  2  0  0  0  0
  4  5  1  0  0  0  0
  5  6  2  0  0  0  0
  6  1  1  0  0  0  0
  9 10  1  0  0  0  0
 10 11  2  0  0  0  0
 11 12  1  0  0  0  0
 12 13  2  0  0  0  0
  8  9  2  0  0  0  0
 13  8  1  0  0  0  0
  6  7  1  0  0  0  0
  7  8  1  0  0  0  0
  1 14  1  0  0  0  0
 14 15  2  0  0  0  0
 14 16  1  0  0  0  0
M  END
