MODEL 1
REMARK VINA RESULT:    -5.795      0.000      0.000
REMARK INTER + INTRA:          -7.579
REMARK INTER:                  -6.980
REMARK INTRA:                  -0.599
REMARK UNBOUND:                -0.767
REMARK  Name = 
REMARK  3 active torsions:
REMARK  status: ('A' for Active; 'I' for Inactive)
REMARK    1  A    between atoms: C_1  and  C_14
REMARK    2  A    between atoms: C_6  and  N_7
REMARK    3  A    between atoms: N_7  and  C_8
REMARK                            x       y       z     vdW  Elec       q    Type
REMARK                         _______ _______ _______ _____ _____    ______ ____
ROOT
ATOM      1  C   UNL     1      19.434 -33.902 -19.387  0.00  0.00    +0.018 A 
ATOM      2  C   UNL     1      20.147 -35.079 -19.726  0.00  0.00    +0.040 A 
ATOM      3  C   UNL     1      20.387 -35.357 -21.083  0.00  0.00    +0.024 A 
ATOM      4  C   UNL     1      19.984 -34.478 -22.091  0.00  0.00    +0.002 A 
ATOM      5  C   UNL     1      19.317 -33.306 -21.758  0.00  0.00    +0.001 A 
ATOM      6  C   UNL     1      19.040 -33.026 -20.421  0.00  0.00    +0.011 A 
ENDROOT
BRANCH   1   7
ATOM      7  C   UNL     1      19.076 -33.553 -17.950  0.00  0.00    +0.073 C 
ATOM      8  O   UNL     1      17.846 -33.388 -17.674  0.00  0.00    -0.545 OA
ATOM      9  O   UNL     1      20.038 -33.455 -17.116  0.00  0.00    -0.545 OA
ENDBRANCH   1   7
BRANCH   2  10
ATOM     10  N   UNL     1      20.577 -35.970 -18.714  0.00  0.00    -0.314 N 
ATOM     11  H   UNL     1      19.850 -35.998 -17.967  0.00  0.00    +0.152 HD
BRANCH  10  12
ATOM     12  C   UNL     1      21.853 -36.296 -18.217  0.00  0.00    +0.031 A 
ATOM     13  C   UNL     1      22.971 -35.900 -18.966  0.00  0.00    +0.023 A 
ATOM     14  C   UNL     1      24.272 -36.146 -18.518  0.00  0.00    +0.002 A 
ATOM     15  C   UNL     1      24.476 -36.788 -17.299  0.00  0.00    +0.000 A 
ATOM     16  C   UNL     1      23.380 -37.185 -16.539  0.00  0.00    +0.002 A 
ATOM     17  C   UNL     1      22.080 -36.938 -16.996  0.00  0.00    +0.023 A 
ENDBRANCH  10  12
ENDBRANCH   2  10
TORSDOF 3
ENDMDL
MODEL 2
REMARK VINA RESULT:    -5.783      4.267      6.351
REMARK INTER + INTRA:          -7.565
REMARK INTER:                  -6.901
REMARK INTRA:                  -0.664
REMARK UNBOUND:                -0.767
REMARK  Name = 
REMARK  3 active torsions:
REMARK  status: ('A' for Active; 'I' for Inactive)
REMARK    1  A    between atoms: C_1  and  C_14
REMARK    2  A    between atoms: C_6  and  N_7
REMARK    3  A    between atoms: N_7  and  C_8
REMARK                            x       y       z     vdW  Elec       q    Type
REMARK                         _______ _______ _______ _____ _____    ______ ____
ROOT
ATOM      1  C   UNL     1      19.438 -33.892 -22.844  0.00  0.00    +0.018 A 
ATOM      2  C   UNL     1      20.114 -35.130 -22.714  0.00  0.00    +0.040 A 
ATOM      3  C   UNL     1      20.440 -35.592 -21.427  0.00  0.00    +0.024 A 
ATOM      4  C   UNL     1      20.067 -34.884 -20.282  0.00  0.00    +0.002 A 
ATOM      5  C   UNL     1      19.372 -33.688 -20.406  0.00  0.00    +0.001 A 
ATOM      6  C   UNL     1      19.068 -33.195 -21.675  0.00  0.00    +0.011 A 
ENDROOT
BRANCH   1   7
ATOM      7  C   UNL     1      19.101 -33.287 -24.199  0.00  0.00    +0.073 C 
ATOM      8  O   UNL     1      17.872 -33.187 -24.509  0.00  0.00    -0.545 OA
ATOM      9  O   UNL     1      20.079 -32.913 -24.931  0.00  0.00    -0.545 OA
ENDBRANCH   1   7
BRANCH   2  10
ATOM     10  N   UNL     1      20.483 -35.867 -23.865  0.00  0.00    -0.314 N 
ATOM     11  H   UNL     1      20.895 -35.210 -24.562  0.00  0.00    +0.152 HD
BRANCH  10  12
ATOM     12  C   UNL     1      19.925 -37.003 -24.483  0.00  0.00    +0.031 A 
ATOM     13  C   UNL     1      20.299 -37.283 -25.805  0.00  0.00    +0.023 A 
ATOM     14  C   UNL     1      19.825 -38.416 -26.472  0.00  0.00    +0.002 A 
ATOM     15  C   UNL     1      18.970 -39.299 -25.818  0.00  0.00    +0.000 A 
ATOM     16  C   UNL     1      18.590 -39.042 -24.503  0.00  0.00    +0.002 A 
ATOM     17  C   UNL     1      19.068 -37.903 -23.843  0.00  0.00    +0.023 A 
ENDBRANCH  10  12
ENDBRANCH   2  10
TORSDOF 3
ENDMDL
MODEL 3
REMARK VINA RESULT:    -5.768      4.235      6.171
REMARK INTER + INTRA:          -7.547
REMARK INTER:                  -6.816
REMARK INTRA:                  -0.731
REMARK UNBOUND:                -0.767
REMARK  Name = 
REMARK  3 active torsions:
REMARK  status: ('A' for Active; 'I' for Inactive)
REMARK    1  A    between atoms: C_1  and  C_14
REMARK    2  A    between atoms: C_6  and  N_7
REMARK    3  A    between atoms: N_7  and  C_8
REMARK                            x       y       z     vdW  Elec       q    Type
REMARK                         _______ _______ _______ _____ _____    ______ ____
ROOT
ATOM      1  C   UNL     1      19.381 -33.702 -22.925  0.00  0.00    +0.018 A 
ATOM      2  C   UNL     1      20.004 -34.973 -22.868  0.00  0.00    +0.040 A 
ATOM      3  C   UNL     1      20.347 -35.503 -21.612  0.00  0.00    +0.024 A 
ATOM      4  C   UNL     1      20.041 -34.829 -20.428  0.00  0.00    +0.002 A 
ATOM      5  C   UNL     1      19.399 -33.599 -20.480  0.00  0.00    +0.001 A 
ATOM      6  C   UNL     1      19.079 -33.040 -21.717  0.00  0.00    +0.011 A 
ENDROOT
BRANCH   1   7
ATOM      7  C   UNL     1      19.032 -33.025 -24.243  0.00  0.00    +0.073 C 
ATOM      8  O   UNL     1      17.801 -32.946 -24.555  0.00  0.00    -0.545 OA
ATOM      9  O   UNL     1      20.000 -32.575 -24.943  0.00  0.00    -0.545 OA
ENDBRANCH   1   7
BRANCH   2  10
ATOM     10  N   UNL     1      20.304 -35.676 -24.061  0.00  0.00    -0.314 N 
ATOM     11  H   UNL     1      19.778 -36.576 -24.055  0.00  0.00    +0.152 HD
BRANCH  10  12
ATOM     12  C   UNL     1      21.468 -35.753 -24.849  0.00  0.00    +0.031 A 
ATOM     13  C   UNL     1      21.402 -36.476 -26.049  0.00  0.00    +0.023 A 
ATOM     14  C   UNL     1      22.501 -36.562 -26.909  0.00  0.00    +0.002 A 
ATOM     15  C   UNL     1      23.689 -35.913 -26.583  0.00  0.00    +0.000 A 
ATOM     16  C   UNL     1      23.773 -35.187 -25.398  0.00  0.00    +0.002 A 
ATOM     17  C   UNL     1      22.669 -35.108 -24.541  0.00  0.00    +0.023 A 
ENDBRANCH  10  12
ENDBRANCH   2  10
TORSDOF 3
ENDMDL
MODEL 4
REMARK VINA RESULT:    -5.593      3.521      5.075
REMARK INTER + INTRA:          -7.341
REMARK INTER:                  -6.630
REMARK INTRA:                  -0.711
REMARK UNBOUND:                -0.767
REMARK  Name = 
REMARK  3 active torsions:
REMARK  status: ('A' for Active; 'I' for Inactive)
REMARK    1  A    between atoms: C_1  and  C_14
REMARK    2  A    between atoms: C_6  and  N_7
REMARK    3  A    between atoms: N_7  and  C_8
REMARK                            x       y       z     vdW  Elec       q    Type
REMARK                         _______ _______ _______ _____ _____    ______ ____
ROOT
ATOM      1  C   UNL     1      21.175 -35.252 -23.091  0.00  0.00    +0.018 A 
ATOM      2  C   UNL     1      20.062 -34.611 -22.494  0.00  0.00    +0.040 A 
ATOM      3  C   UNL     1      19.523 -33.472 -23.117  0.00  0.00    +0.024 A 
ATOM      4  C   UNL     1      20.027 -32.995 -24.329  0.00  0.00    +0.002 A 
ATOM      5  C   UNL     1      21.095 -33.644 -24.935  0.00  0.00    +0.001 A 
ATOM      6  C   UNL     1      21.666 -34.756 -24.318  0.00  0.00    +0.011 A 
ENDROOT
BRANCH   1   7
ATOM      7  C   UNL     1      21.861 -36.453 -22.456  0.00  0.00    +0.073 C 
ATOM      8  O   UNL     1      21.962 -37.510 -23.154  0.00  0.00    -0.545 OA
ATOM      9  O   UNL     1      22.296 -36.313 -21.263  0.00  0.00    -0.545 OA
ENDBRANCH   1   7
BRANCH   2  10
ATOM     10  N   UNL     1      19.530 -35.093 -21.274  0.00  0.00    -0.314 N 
ATOM     11  H   UNL     1      18.892 -35.891 -21.483  0.00  0.00    +0.152 HD
BRANCH  10  12
ATOM     12  C   UNL     1      19.188 -34.451 -20.068  0.00  0.00    +0.031 A 
ATOM     13  C   UNL     1      17.873 -33.984 -19.922  0.00  0.00    +0.023 A 
ATOM     14  C   UNL     1      17.443 -33.377 -18.739  0.00  0.00    +0.002 A 
ATOM     15  C   UNL     1      18.326 -33.235 -17.672  0.00  0.00    +0.000 A 
ATOM     16  C   UNL     1      19.634 -33.696 -17.795  0.00  0.00    +0.002 A 
ATOM     17  C   UNL     1      20.058 -34.301 -18.984  0.00  0.00    +0.023 A 
ENDBRANCH  10  12
ENDBRANCH   2  10
TORSDOF 3
ENDMDL
MODEL 5
REMARK VINA RESULT:    -5.502      2.129      2.949
REMARK INTER + INTRA:          -7.235
REMARK INTER:                  -6.477
REMARK INTRA:                  -0.758
REMARK UNBOUND:                -0.767
REMARK  Name = 
REMARK  3 active torsions:
REMARK  status: ('A' for Active; 'I' for Inactive)
REMARK    1  A    between atoms: C_1  and  C_14
REMARK    2  A    between atoms: C_6  and  N_7
REMARK    3  A    between atoms: N_7  and  C_8
REMARK                            x       y       z     vdW  Elec       q    Type
REMARK                         _______ _______ _______ _____ _____    ______ ____
ROOT
ATOM      1  C   UNL     1      19.798 -33.851 -22.317  0.00  0.00    +0.018 A 
ATOM      2  C   UNL     1      20.552 -35.006 -22.641  0.00  0.00    +0.040 A 
ATOM      3  C   UNL     1      21.057 -35.140 -23.946  0.00  0.00    +0.024 A 
ATOM      4  C   UNL     1      20.874 -34.141 -24.905  0.00  0.00    +0.002 A 
ATOM      5  C   UNL     1      20.166 -32.993 -24.579  0.00  0.00    +0.001 A 
ATOM      6  C   UNL     1      19.628 -32.854 -23.300  0.00  0.00    +0.011 A 
ENDROOT
BRANCH   1   7
ATOM      7  C   UNL     1      19.161 -33.652 -20.949  0.00  0.00    +0.073 C 
ATOM      8  O   UNL     1      18.481 -34.614 -20.471  0.00  0.00    -0.545 OA
ATOM      9  O   UNL     1      19.360 -32.531 -20.370  0.00  0.00    -0.545 OA
ENDBRANCH   1   7
BRANCH   2  10
ATOM     10  N   UNL     1      20.760 -36.018 -21.672  0.00  0.00    -0.314 N 
ATOM     11  H   UNL     1      19.844 -36.248 -21.231  0.00  0.00    +0.152 HD
BRANCH  10  12
ATOM     12  C   UNL     1      21.840 -36.303 -20.816  0.00  0.00    +0.031 A 
ATOM     13  C   UNL     1      21.710 -35.968 -19.460  0.00  0.00    +0.023 A 
ATOM     14  C   UNL     1      22.720 -36.259 -18.538  0.00  0.00    +0.002 A 
ATOM     15  C   UNL     1      23.880 -36.904 -18.960  0.00  0.00    +0.000 A 
ATOM     16  C   UNL     1      24.026 -37.248 -20.301  0.00  0.00    +0.002 A 
ATOM     17  C   UNL     1      23.012 -36.951 -21.219  0.00  0.00    +0.023 A 
ENDBRANCH  10  12
ENDBRANCH   2  10
TORSDOF 3
ENDMDL
MODEL 6
REMARK VINA RESULT:    -5.398      1.857      5.307
REMARK INTER + INTRA:          -7.112
REMARK INTER:                  -6.512
REMARK INTRA:                  -0.600
REMARK UNBOUND:                -0.767
REMARK  Name = 
REMARK  3 active torsions:
REMARK  status: ('A' for Active; 'I' for Inactive)
REMARK    1  A    between atoms: C_1  and  C_14
REMARK    2  A    between atoms: C_6  and  N_7
REMARK    3  A    between atoms: N_7  and  C_8
REMARK                            x       y       z     vdW  Elec       q    Type
REMARK                         _______ _______ _______ _____ _____    ______ ____
ROOT
ATOM      1  C   UNL     1      21.409 -35.747 -19.028  0.00  0.00    +0.018 A 
ATOM      2  C   UNL     1      21.529 -36.063 -20.403  0.00  0.00    +0.040 A 
ATOM      3  C   UNL     1      22.703 -36.694 -20.853  0.00  0.00    +0.024 A 
ATOM      4  C   UNL     1      23.721 -37.057 -19.968  0.00  0.00    +0.002 A 
ATOM      5  C   UNL     1      23.589 -36.780 -18.614  0.00  0.00    +0.001 A 
ATOM      6  C   UNL     1      22.448 -36.126 -18.151  0.00  0.00    +0.011 A 
ENDROOT
BRANCH   1   7
ATOM      7  C   UNL     1      20.203 -35.011 -18.464  0.00  0.00    +0.073 C 
ATOM      8  O   UNL     1      19.619 -35.523 -17.456  0.00  0.00    -0.545 OA
ATOM      9  O   UNL     1      19.863 -33.922 -19.038  0.00  0.00    -0.545 OA
ENDBRANCH   1   7
BRANCH   2  10
ATOM     10  N   UNL     1      20.497 -35.717 -21.308  0.00  0.00    -0.314 N 
ATOM     11  H   UNL     1      19.833 -36.518 -21.376  0.00  0.00    +0.152 HD
BRANCH  10  12
ATOM     12  C   UNL     1      20.482 -34.925 -22.472  0.00  0.00    +0.031 A 
ATOM     13  C   UNL     1      19.563 -33.867 -22.536  0.00  0.00    +0.023 A 
ATOM     14  C   UNL     1      19.516 -33.008 -23.637  0.00  0.00    +0.002 A 
ATOM     15  C   UNL     1      20.404 -33.188 -24.695  0.00  0.00    +0.000 A 
ATOM     16  C   UNL     1      21.327 -34.229 -24.649  0.00  0.00    +0.002 A 
ATOM     17  C   UNL     1      21.365 -35.087 -23.544  0.00  0.00    +0.023 A 
ENDBRANCH  10  12
ENDBRANCH   2  10
TORSDOF 3
ENDMDL
MODEL 7
REMARK VINA RESULT:    -5.351      4.631      6.583
REMARK INTER + INTRA:          -7.057
REMARK INTER:                  -6.341
REMARK INTRA:                  -0.717
REMARK UNBOUND:                -0.767
REMARK  Name = 
REMARK  3 active torsions:
REMARK  status: ('A' for Active; 'I' for Inactive)
REMARK    1  A    between atoms: C_1  and  C_14
REMARK    2  A    between atoms: C_6  and  N_7
REMARK    3  A    between atoms: N_7  and  C_8
REMARK                            x       y       z     vdW  Elec       q    Type
REMARK                         _______ _______ _______ _____ _____    ______ ____
ROOT
ATOM      1  C   UNL     1      21.332 -36.326 -25.472  0.00  0.00    +0.018 A 
ATOM      2  C   UNL     1      21.385 -35.168 -24.657  0.00  0.00    +0.040 A 
ATOM      3  C   UNL     1      22.612 -34.497 -24.515  0.00  0.00    +0.024 A 
ATOM      4  C   UNL     1      23.757 -34.917 -25.195  0.00  0.00    +0.002 A 
ATOM      5  C   UNL     1      23.699 -36.032 -26.021  0.00  0.00    +0.001 A 
ATOM      6  C   UNL     1      22.500 -36.731 -26.152  0.00  0.00    +0.011 A 
ENDROOT
BRANCH   1   7
ATOM      7  C   UNL     1      20.063 -37.150 -25.634  0.00  0.00    +0.073 C 
ATOM      8  O   UNL     1      19.823 -37.641 -26.783  0.00  0.00    -0.545 OA
ATOM      9  O   UNL     1      19.326 -37.297 -24.602  0.00  0.00    -0.545 OA
ENDBRANCH   1   7
BRANCH   2  10
ATOM     10  N   UNL     1      20.227 -34.720 -23.977  0.00  0.00    -0.314 N 
ATOM     11  H   UNL     1      19.713 -34.059 -24.598  0.00  0.00    +0.152 HD
BRANCH  10  12
ATOM     12  C   UNL     1      19.963 -34.474 -22.616  0.00  0.00    +0.031 A 
ATOM     13  C   UNL     1      20.424 -35.409 -21.677  0.00  0.00    +0.023 A 
ATOM     14  C   UNL     1      20.242 -35.215 -20.305  0.00  0.00    +0.002 A 
ATOM     15  C   UNL     1      19.598 -34.069 -19.847  0.00  0.00    +0.000 A 
ATOM     16  C   UNL     1      19.136 -33.126 -20.762  0.00  0.00    +0.002 A 
ATOM     17  C   UNL     1      19.321 -33.329 -22.135  0.00  0.00    +0.023 A 
ENDBRANCH  10  12
ENDBRANCH   2  10
TORSDOF 3
ENDMDL
MODEL 8
REMARK VINA RESULT:    -5.329      1.601      5.280
REMARK INTER + INTRA:          -7.030
REMARK INTER:                  -6.263
REMARK INTRA:                  -0.767
REMARK UNBOUND:                -0.767
REMARK  Name = 
REMARK  3 active torsions:
REMARK  status: ('A' for Active; 'I' for Inactive)
REMARK    1  A    between atoms: C_1  and  C_14
REMARK    2  A    between atoms: C_6  and  N_7
REMARK    3  A    between atoms: N_7  and  C_8
REMARK                            x       y       z     vdW  Elec       q    Type
REMARK                         _______ _______ _______ _____ _____    ______ ____
ROOT
ATOM      1  C   UNL     1      22.157 -36.915 -17.276  0.00  0.00    +0.018 A 
ATOM      2  C   UNL     1      22.129 -36.403 -18.596  0.00  0.00    +0.040 A 
ATOM      3  C   UNL     1      23.341 -36.027 -19.201  0.00  0.00    +0.024 A 
ATOM      4  C   UNL     1      24.565 -36.194 -18.550  0.00  0.00    +0.002 A 
ATOM      5  C   UNL     1      24.597 -36.729 -17.269  0.00  0.00    +0.001 A 
ATOM      6  C   UNL     1      23.404 -37.079 -16.638  0.00  0.00    +0.011 A 
ENDROOT
BRANCH   1   7
ATOM      7  C   UNL     1      20.890 -37.290 -16.521  0.00  0.00    +0.073 C 
ATOM      8  O   UNL     1      20.783 -38.489 -16.110  0.00  0.00    -0.545 OA
ATOM      9  O   UNL     1      20.021 -36.371 -16.346  0.00  0.00    -0.545 OA
ENDBRANCH   1   7
BRANCH   2  10
ATOM     10  N   UNL     1      20.897 -36.245 -19.275  0.00  0.00    -0.314 N 
ATOM     11  H   UNL     1      20.702 -37.115 -19.815  0.00  0.00    +0.152 HD
BRANCH  10  12
ATOM     12  C   UNL     1      20.264 -35.123 -19.844  0.00  0.00    +0.031 A 
ATOM     13  C   UNL     1      19.826 -34.108 -18.980  0.00  0.00    +0.023 A 
ATOM     14  C   UNL     1      19.230 -32.942 -19.470  0.00  0.00    +0.002 A 
ATOM     15  C   UNL     1      19.072 -32.768 -20.842  0.00  0.00    +0.000 A 
ATOM     16  C   UNL     1      19.504 -33.762 -21.716  0.00  0.00    +0.002 A 
ATOM     17  C   UNL     1      20.097 -34.928 -21.218  0.00  0.00    +0.023 A 
ENDBRANCH  10  12
ENDBRANCH   2  10
TORSDOF 3
ENDMDL
MODEL 9
REMARK VINA RESULT:    -5.297      6.146      8.282
REMARK INTER + INTRA:          -6.994
REMARK INTER:                  -6.250
REMARK INTRA:                  -0.744
REMARK UNBOUND:                -0.767
REMARK  Name = 
REMARK  3 active torsions:
REMARK  status: ('A' for Active; 'I' for Inactive)
REMARK    1  A    between atoms: C_1  and  C_14
REMARK    2  A    between atoms: C_6  and  N_7
REMARK    3  A    between atoms: N_7  and  C_8
REMARK                            x       y       z     vdW  Elec       q    Type
REMARK                         _______ _______ _______ _____ _____    ______ ____
ROOT
ATOM      1  C   UNL     1      21.442 -38.025 -26.815  0.00  0.00    +0.018 A 
ATOM      2  C   UNL     1      21.677 -36.674 -26.460  0.00  0.00    +0.040 A 
ATOM      3  C   UNL     1      22.997 -36.191 -26.473  0.00  0.00    +0.024 A 
ATOM      4  C   UNL     1      24.066 -36.997 -26.873  0.00  0.00    +0.002 A 
ATOM      5  C   UNL     1      23.832 -38.311 -27.255  0.00  0.00    +0.001 A 
ATOM      6  C   UNL     1      22.535 -38.820 -27.219  0.00  0.00    +0.011 A 
ENDROOT
BRANCH   1   7
ATOM      7  C   UNL     1      20.055 -38.649 -26.770  0.00  0.00    +0.073 C 
ATOM      8  O   UNL     1      19.661 -39.283 -27.800  0.00  0.00    -0.545 OA
ATOM      9  O   UNL     1      19.381 -38.499 -25.696  0.00  0.00    -0.545 OA
ENDBRANCH   1   7
BRANCH   2  10
ATOM     10  N   UNL     1      20.601 -35.840 -26.070  0.00  0.00    -0.314 N 
ATOM     11  H   UNL     1      20.208 -35.386 -26.921  0.00  0.00    +0.152 HD
BRANCH  10  12
ATOM     12  C   UNL     1      20.367 -35.075 -24.911  0.00  0.00    +0.031 A 
ATOM     13  C   UNL     1      20.367 -33.677 -25.036  0.00  0.00    +0.023 A 
ATOM     14  C   UNL     1      20.098 -32.849 -23.943  0.00  0.00    +0.002 A 
ATOM     15  C   UNL     1      19.813 -33.410 -22.701  0.00  0.00    +0.000 A 
ATOM     16  C   UNL     1      19.804 -34.795 -22.557  0.00  0.00    +0.002 A 
ATOM     17  C   UNL     1      20.077 -35.618 -23.656  0.00  0.00    +0.023 A 
ENDBRANCH  10  12
ENDBRANCH   2  10
TORSDOF 3
ENDMDL
