
  MJ192500                      

 13 14  0  0  0  0  0  0  0  0999 V2000
   -4.1916   -0.0882    0.0000 O   0  0  0  0  0  0  0  0  0  0  0  0
   -4.6765   -0.7557    0.0000 C   0  0  0  0  0  0  0  0  0  0  0  0
   -4.1916   -1.4231    0.0000 N   0  0  0  0  0  0  0  0  0  0  0  0
   -3.4070   -1.1682    0.0000 C   0  0  0  0  0  0  0  0  0  0  0  0
   -3.4070   -0.3432    0.0000 C   0  0  0  0  0  0  0  0  0  0  0  0
   -5.5015   -0.7557    0.0000 C   0  0  0  0  0  0  0  0  0  0  0  0
   -2.7396    0.1416    0.0000 C   0  0  0  0  0  0  0  0  0  0  0  0
   -2.7396   -1.6531    0.0000 C   0  0  0  0  0  0  0  0  0  0  0  0
   -2.0251   -1.2406    0.0000 C   0  0  0  0  0  0  0  0  0  0  0  0
   -1.3106   -1.6531    0.0000 O   0  0  0  0  0  0  0  0  0  0  0  0
   -2.0251   -0.4156    0.0000 O   0  0  0  0  0  0  0  0  0  0  0  0
   -2.4040    0.8953    0.0000 C   0  0  0  0  0  0  0  0  0  0  0  0
   -1.9326    0.3131    0.0000 C   0  0  0  0  0  0  0  0  0  0  0  0
  4  5  2  0  0  0  0
  2  3  2  0  0  0  0
  3  4  1  0  0  0  0
  1  2  1  0  0  0  0
  1  5  1  0  0  0  0
  2  6  1  0  0  0  0
  5  7  1  0  0  0  0
  4  8  1  0  0  0  0
  8  9  1  0  0  0  0
  9 11  2  0  0  0  0
  9 10  1  0  0  0  0
  7 12  1  0  0  0  0
  7 13  1  0  0  0  0
 13 12  1  0  0  0  0
M  END
