
  MJ192500                      

 13 13  0  0  0  0  0  0  0  0999 V2000
   -4.6205    1.1152    0.0000 C   0  0  0  0  0  0  0  0  0  0  0  0
   -5.3349    0.7027    0.0000 C   0  0  0  0  0  0  0  0  0  0  0  0
   -5.3349   -0.1223    0.0000 C   0  0  0  0  0  0  0  0  0  0  0  0
   -4.6205   -0.5348    0.0000 C   0  0  0  0  0  0  0  0  0  0  0  0
   -3.9060   -0.1223    0.0000 C   0  0  0  0  0  0  0  0  0  0  0  0
   -3.9060    0.7027    0.0000 C   0  0  0  0  0  0  0  0  0  0  0  0
   -3.1524   -0.4579    0.0000 C   0  0  0  0  0  0  0  0  0  0  0  0
   -2.4379   -0.0454    0.0000 C   0  0  0  0  0  0  0  0  0  0  0  0
   -1.7234   -0.4579    0.0000 O   0  0  0  0  0  0  0  0  0  0  0  0
   -1.0089   -0.0454    0.0000 C   0  0  0  0  0  0  0  0  0  0  0  0
   -0.2945   -0.4579    0.0000 C   0  0  0  0  0  0  0  0  0  0  0  0
    0.4199   -0.0454    0.0000 C   0  0  0  0  0  0  0  0  0  0  0  0
   -1.0089    0.7795    0.0000 O   0  0  0  0  0  0  0  0  0  0  0  0
  1  2  2  0  0  0  0
  2  3  1  0  0  0  0
  3  4  2  0  0  0  0
  4  5  1  0  0  0  0
  5  6  2  0  0  0  0
  6  1  1  0  0  0  0
  5  7  1  0  0  0  0
  7  8  1  0  0  0  0
 10 11  1  0  0  0  0
 11 12  1  0  0  0  0
  8  9  1  0  0  0  0
  9 10  1  0  0  0  0
 10 13  2  0  0  0  0
M  END
