MODEL 1
REMARK VINA RESULT:    -4.703      0.000      0.000
REMARK INTER + INTRA:          -5.332
REMARK INTER:                  -5.259
REMARK INTRA:                  -0.073
REMARK UNBOUND:                -0.079
REMARK  Name = 
REMARK  3 active torsions:
REMARK  status: ('A' for Active; 'I' for Inactive)
REMARK    1  A    between atoms: C_3  and  O_7
REMARK    2  A    between atoms: C_6  and  C_8
REMARK    3  A    between atoms: O_7  and  C_11
REMARK                            x       y       z     vdW  Elec       q    Type
REMARK                         _______ _______ _______ _____ _____    ______ ____
ROOT
ATOM      1  C   UNL     1      19.283 -33.022 -20.072  0.00  0.00    +0.013 A 
ATOM      2  C   UNL     1      19.670 -34.176 -19.374  0.00  0.00    -0.002 A 
ATOM      3  C   UNL     1      20.079 -35.291 -20.120  0.00  0.00    +0.013 A 
ATOM      4  C   UNL     1      20.102 -35.249 -21.518  0.00  0.00    +0.046 A 
ATOM      5  C   UNL     1      19.716 -34.094 -22.202  0.00  0.00    +0.120 A 
ATOM      6  C   UNL     1      19.305 -32.978 -21.472  0.00  0.00    +0.046 A 
ENDROOT
BRANCH   2   7
ATOM      7  C   UNL     1      19.644 -34.215 -17.857  0.00  0.00    +0.072 C 
ATOM      8  O   UNL     1      20.249 -35.181 -17.294  0.00  0.00    -0.545 OA
ATOM      9  O   UNL     1      19.021 -33.279 -17.263  0.00  0.00    -0.545 OA
ENDBRANCH   2   7
BRANCH   5  10
ATOM     10  O   UNL     1      19.783 -34.183 -23.566  0.00  0.00    -0.495 OA
ATOM     11  C   UNL     1      20.154 -32.999 -24.260  0.00  0.00    +0.277 C 
ENDBRANCH   5  10
TORSDOF 2
ENDMDL
MODEL 2
REMARK VINA RESULT:    -4.553      1.126      5.011
REMARK INTER + INTRA:          -5.164
REMARK INTER:                  -5.083
REMARK INTRA:                  -0.081
REMARK UNBOUND:                -0.079
REMARK  Name = 
REMARK  3 active torsions:
REMARK  status: ('A' for Active; 'I' for Inactive)
REMARK    1  A    between atoms: C_3  and  O_7
REMARK    2  A    between atoms: C_6  and  C_8
REMARK    3  A    between atoms: O_7  and  C_11
REMARK                            x       y       z     vdW  Elec       q    Type
REMARK                         _______ _______ _______ _____ _____    ______ ____
ROOT
ATOM      1  C   UNL     1      20.248 -34.918 -22.408  0.00  0.00    +0.013 A 
ATOM      2  C   UNL     1      19.594 -33.717 -22.720  0.00  0.00    -0.002 A 
ATOM      3  C   UNL     1      19.110 -32.935 -21.661  0.00  0.00    +0.013 A 
ATOM      4  C   UNL     1      19.279 -33.343 -20.334  0.00  0.00    +0.046 A 
ATOM      5  C   UNL     1      19.933 -34.540 -20.035  0.00  0.00    +0.120 A 
ATOM      6  C   UNL     1      20.419 -35.328 -21.079  0.00  0.00    +0.046 A 
ENDROOT
BRANCH   2   7
ATOM      7  C   UNL     1      19.414 -33.279 -24.162  0.00  0.00    +0.072 C 
ATOM      8  O   UNL     1      18.225 -33.063 -24.557  0.00  0.00    -0.545 OA
ATOM      9  O   UNL     1      20.465 -33.161 -24.868  0.00  0.00    -0.545 OA
ENDBRANCH   2   7
BRANCH   5  10
ATOM     10  O   UNL     1      20.032 -34.825 -18.700  0.00  0.00    -0.495 OA
ATOM     11  C   UNL     1      19.856 -33.735 -17.804  0.00  0.00    +0.277 C 
ENDBRANCH   5  10
TORSDOF 2
ENDMDL
MODEL 3
REMARK VINA RESULT:    -4.080      1.809      2.684
REMARK INTER + INTRA:          -4.636
REMARK INTER:                  -4.568
REMARK INTRA:                  -0.068
REMARK UNBOUND:                -0.079
REMARK  Name = 
REMARK  3 active torsions:
REMARK  status: ('A' for Active; 'I' for Inactive)
REMARK    1  A    between atoms: C_3  and  O_7
REMARK    2  A    between atoms: C_6  and  C_8
REMARK    3  A    between atoms: O_7  and  C_11
REMARK                            x       y       z     vdW  Elec       q    Type
REMARK                         _______ _______ _______ _____ _____    ______ ____
ROOT
ATOM      1  C   UNL     1      20.058 -35.027 -21.325  0.00  0.00    +0.013 A 
ATOM      2  C   UNL     1      19.464 -33.756 -21.321  0.00  0.00    -0.002 A 
ATOM      3  C   UNL     1      19.275 -33.114 -22.554  0.00  0.00    +0.013 A 
ATOM      4  C   UNL     1      19.667 -33.726 -23.748  0.00  0.00    +0.046 A 
ATOM      5  C   UNL     1      20.256 -34.991 -23.740  0.00  0.00    +0.120 A 
ATOM      6  C   UNL     1      20.451 -35.642 -22.521  0.00  0.00    +0.046 A 
ENDROOT
BRANCH   2   7
ATOM      7  C   UNL     1      19.040 -33.098 -20.022  0.00  0.00    +0.072 C 
ATOM      8  O   UNL     1      19.632 -33.476 -18.962  0.00  0.00    -0.545 OA
ATOM      9  O   UNL     1      18.125 -32.217 -20.088  0.00  0.00    -0.545 OA
ENDBRANCH   2   7
BRANCH   5  10
ATOM     10  O   UNL     1      20.594 -35.479 -24.974  0.00  0.00    -0.495 OA
ATOM     11  C   UNL     1      21.981 -35.509 -25.285  0.00  0.00    +0.277 C 
ENDBRANCH   5  10
TORSDOF 2
ENDMDL
MODEL 4
REMARK VINA RESULT:    -3.866      2.351      5.494
REMARK INTER + INTRA:          -4.397
REMARK INTER:                  -4.326
REMARK INTRA:                  -0.070
REMARK UNBOUND:                -0.079
REMARK  Name = 
REMARK  3 active torsions:
REMARK  status: ('A' for Active; 'I' for Inactive)
REMARK    1  A    between atoms: C_3  and  O_7
REMARK    2  A    between atoms: C_6  and  C_8
REMARK    3  A    between atoms: O_7  and  C_11
REMARK                            x       y       z     vdW  Elec       q    Type
REMARK                         _______ _______ _______ _____ _____    ______ ____
ROOT
ATOM      1  C   UNL     1      20.034 -36.038 -22.888  0.00  0.00    +0.013 A 
ATOM      2  C   UNL     1      20.084 -35.533 -24.196  0.00  0.00    -0.002 A 
ATOM      3  C   UNL     1      19.934 -34.150 -24.374  0.00  0.00    +0.013 A 
ATOM      4  C   UNL     1      19.744 -33.303 -23.277  0.00  0.00    +0.046 A 
ATOM      5  C   UNL     1      19.698 -33.817 -21.980  0.00  0.00    +0.120 A 
ATOM      6  C   UNL     1      19.844 -35.191 -21.788  0.00  0.00    +0.046 A 
ENDROOT
BRANCH   2   7
ATOM      7  C   UNL     1      20.291 -36.457 -25.381  0.00  0.00    +0.072 C 
ATOM      8  O   UNL     1      19.605 -37.527 -25.407  0.00  0.00    -0.545 OA
ATOM      9  O   UNL     1      21.134 -36.093 -26.261  0.00  0.00    -0.545 OA
ENDBRANCH   2   7
BRANCH   5  10
ATOM     10  O   UNL     1      19.506 -32.884 -20.996  0.00  0.00    -0.495 OA
ATOM     11  C   UNL     1      19.407 -33.377 -19.667  0.00  0.00    +0.277 C 
ENDBRANCH   5  10
TORSDOF 2
ENDMDL
MODEL 5
REMARK VINA RESULT:    -3.794      3.583      5.216
REMARK INTER + INTRA:          -4.317
REMARK INTER:                  -4.231
REMARK INTRA:                  -0.086
REMARK UNBOUND:                -0.079
REMARK  Name = 
REMARK  3 active torsions:
REMARK  status: ('A' for Active; 'I' for Inactive)
REMARK    1  A    between atoms: C_3  and  O_7
REMARK    2  A    between atoms: C_6  and  C_8
REMARK    3  A    between atoms: O_7  and  C_11
REMARK                            x       y       z     vdW  Elec       q    Type
REMARK                         _______ _______ _______ _____ _____    ______ ____
ROOT
ATOM      1  C   UNL     1      21.184 -35.680 -22.738  0.00  0.00    +0.013 A 
ATOM      2  C   UNL     1      22.011 -35.535 -23.863  0.00  0.00    -0.002 A 
ATOM      3  C   UNL     1      21.700 -34.523 -24.783  0.00  0.00    +0.013 A 
ATOM      4  C   UNL     1      20.600 -33.684 -24.581  0.00  0.00    +0.046 A 
ATOM      5  C   UNL     1      19.785 -33.837 -23.458  0.00  0.00    +0.120 A 
ATOM      6  C   UNL     1      20.081 -34.840 -22.535  0.00  0.00    +0.046 A 
ENDROOT
BRANCH   2   7
ATOM      7  C   UNL     1      23.204 -36.448 -24.075  0.00  0.00    +0.072 C 
ATOM      8  O   UNL     1      23.891 -36.266 -25.130  0.00  0.00    -0.545 OA
ATOM      9  O   UNL     1      23.429 -37.326 -23.183  0.00  0.00    -0.545 OA
ENDBRANCH   2   7
BRANCH   5  10
ATOM     10  O   UNL     1      18.741 -32.954 -23.378  0.00  0.00    -0.495 OA
ATOM     11  C   UNL     1      18.119 -32.596 -24.605  0.00  0.00    +0.277 C 
ENDBRANCH   5  10
TORSDOF 2
ENDMDL
MODEL 6
REMARK VINA RESULT:    -3.793      4.159      6.130
REMARK INTER + INTRA:          -4.315
REMARK INTER:                  -4.245
REMARK INTRA:                  -0.070
REMARK UNBOUND:                -0.079
REMARK  Name = 
REMARK  3 active torsions:
REMARK  status: ('A' for Active; 'I' for Inactive)
REMARK    1  A    between atoms: C_3  and  O_7
REMARK    2  A    between atoms: C_6  and  C_8
REMARK    3  A    between atoms: O_7  and  C_11
REMARK                            x       y       z     vdW  Elec       q    Type
REMARK                         _______ _______ _______ _____ _____    ______ ____
ROOT
ATOM      1  C   UNL     1      19.638 -36.420 -24.632  0.00  0.00    +0.013 A 
ATOM      2  C   UNL     1      20.503 -35.338 -24.858  0.00  0.00    -0.002 A 
ATOM      3  C   UNL     1      21.432 -35.446 -25.904  0.00  0.00    +0.013 A 
ATOM      4  C   UNL     1      21.490 -36.597 -26.695  0.00  0.00    +0.046 A 
ATOM      5  C   UNL     1      20.623 -37.667 -26.461  0.00  0.00    +0.120 A 
ATOM      6  C   UNL     1      19.694 -37.574 -25.424  0.00  0.00    +0.046 A 
ENDROOT
BRANCH   2   7
ATOM      7  C   UNL     1      20.434 -34.091 -23.996  0.00  0.00    +0.072 C 
ATOM      8  O   UNL     1      20.177 -34.255 -22.762  0.00  0.00    -0.545 OA
ATOM      9  O   UNL     1      20.640 -32.976 -24.571  0.00  0.00    -0.545 OA
ENDBRANCH   2   7
BRANCH   5  10
ATOM     10  O   UNL     1      20.782 -38.734 -27.304  0.00  0.00    -0.495 OA
ATOM     11  C   UNL     1      19.601 -39.438 -27.664  0.00  0.00    +0.277 C 
ENDBRANCH   5  10
TORSDOF 2
ENDMDL
MODEL 7
REMARK VINA RESULT:    -3.790      8.761      9.303
REMARK INTER + INTRA:          -4.312
REMARK INTER:                  -4.240
REMARK INTRA:                  -0.072
REMARK UNBOUND:                -0.079
REMARK  Name = 
REMARK  3 active torsions:
REMARK  status: ('A' for Active; 'I' for Inactive)
REMARK    1  A    between atoms: C_3  and  O_7
REMARK    2  A    between atoms: C_6  and  C_8
REMARK    3  A    between atoms: O_7  and  C_11
REMARK                            x       y       z     vdW  Elec       q    Type
REMARK                         _______ _______ _______ _____ _____    ______ ____
ROOT
ATOM      1  C   UNL     1      13.850 -39.641 -19.266  0.00  0.00    +0.013 A 
ATOM      2  C   UNL     1      12.953 -38.563 -19.293  0.00  0.00    -0.002 A 
ATOM      3  C   UNL     1      11.888 -38.615 -20.205  0.00  0.00    +0.013 A 
ATOM      4  C   UNL     1      11.729 -39.711 -21.059  0.00  0.00    +0.046 A 
ATOM      5  C   UNL     1      12.628 -40.779 -21.022  0.00  0.00    +0.120 A 
ATOM      6  C   UNL     1      13.692 -40.740 -20.120  0.00  0.00    +0.046 A 
ENDROOT
BRANCH   2   7
ATOM      7  C   UNL     1      13.131 -37.377 -18.363  0.00  0.00    +0.072 C 
ATOM      8  O   UNL     1      12.476 -36.323 -18.639  0.00  0.00    -0.545 OA
ATOM      9  O   UNL     1      13.920 -37.525 -17.378  0.00  0.00    -0.545 OA
ENDBRANCH   2   7
BRANCH   5  10
ATOM     10  O   UNL     1      12.361 -41.788 -21.908  0.00  0.00    -0.495 OA
ATOM     11  C   UNL     1      11.381 -42.737 -21.511  0.00  0.00    +0.277 C 
ENDBRANCH   5  10
TORSDOF 2
ENDMDL
MODEL 8
REMARK VINA RESULT:    -3.665      1.931      4.705
REMARK INTER + INTRA:          -4.173
REMARK INTER:                  -4.086
REMARK INTRA:                  -0.087
REMARK UNBOUND:                -0.079
REMARK  Name = 
REMARK  3 active torsions:
REMARK  status: ('A' for Active; 'I' for Inactive)
REMARK    1  A    between atoms: C_3  and  O_7
REMARK    2  A    between atoms: C_6  and  C_8
REMARK    3  A    between atoms: O_7  and  C_11
REMARK                            x       y       z     vdW  Elec       q    Type
REMARK                         _______ _______ _______ _____ _____    ______ ____
ROOT
ATOM      1  C   UNL     1      20.406 -35.168 -20.582  0.00  0.00    +0.013 A 
ATOM      2  C   UNL     1      19.656 -34.137 -19.996  0.00  0.00    -0.002 A 
ATOM      3  C   UNL     1      19.668 -34.026 -18.598  0.00  0.00    +0.013 A 
ATOM      4  C   UNL     1      20.409 -34.917 -17.815  0.00  0.00    +0.046 A 
ATOM      5  C   UNL     1      21.152 -35.939 -18.409  0.00  0.00    +0.120 A 
ATOM      6  C   UNL     1      21.148 -36.061 -19.799  0.00  0.00    +0.046 A 
ENDROOT
BRANCH   2   7
ATOM      7  C   UNL     1      18.855 -33.173 -20.852  0.00  0.00    +0.072 C 
ATOM      8  O   UNL     1      18.192 -32.274 -20.244  0.00  0.00    -0.545 OA
ATOM      9  O   UNL     1      18.907 -33.334 -22.112  0.00  0.00    -0.545 OA
ENDBRANCH   2   7
BRANCH   5  10
ATOM     10  O   UNL     1      21.831 -36.742 -17.533  0.00  0.00    -0.495 OA
ATOM     11  C   UNL     1      21.237 -36.931 -16.256  0.00  0.00    +0.277 C 
ENDBRANCH   5  10
TORSDOF 2
ENDMDL
MODEL 9
REMARK VINA RESULT:    -3.507      3.077      6.179
REMARK INTER + INTRA:          -3.996
REMARK INTER:                  -3.917
REMARK INTRA:                  -0.079
REMARK UNBOUND:                -0.079
REMARK  Name = 
REMARK  3 active torsions:
REMARK  status: ('A' for Active; 'I' for Inactive)
REMARK    1  A    between atoms: C_3  and  O_7
REMARK    2  A    between atoms: C_6  and  C_8
REMARK    3  A    between atoms: O_7  and  C_11
REMARK                            x       y       z     vdW  Elec       q    Type
REMARK                         _______ _______ _______ _____ _____    ______ ____
ROOT
ATOM      1  C   UNL     1      22.120 -36.357 -23.757  0.00  0.00    +0.013 A 
ATOM      2  C   UNL     1      22.126 -35.463 -24.838  0.00  0.00    -0.002 A 
ATOM      3  C   UNL     1      21.315 -34.321 -24.752  0.00  0.00    +0.013 A 
ATOM      4  C   UNL     1      20.528 -34.085 -23.620  0.00  0.00    +0.046 A 
ATOM      5  C   UNL     1      20.531 -34.981 -22.550  0.00  0.00    +0.120 A 
ATOM      6  C   UNL     1      21.332 -36.122 -22.623  0.00  0.00    +0.046 A 
ENDROOT
BRANCH   2   7
ATOM      7  C   UNL     1      22.983 -35.725 -26.062  0.00  0.00    +0.072 C 
ATOM      8  O   UNL     1      22.397 -36.195 -27.088  0.00  0.00    -0.545 OA
ATOM      9  O   UNL     1      24.222 -35.454 -25.972  0.00  0.00    -0.545 OA
ENDBRANCH   2   7
BRANCH   5  10
ATOM     10  O   UNL     1      19.718 -34.635 -21.505  0.00  0.00    -0.495 OA
ATOM     11  C   UNL     1      19.204 -33.310 -21.514  0.00  0.00    +0.277 C 
ENDBRANCH   5  10
TORSDOF 2
ENDMDL
