
  MJ192500                      

 11 11  0  0  0  0  0  0  0  0999 V2000
   -3.3259    0.6018    0.0000 C   0  0  0  0  0  0  0  0  0  0  0  0
   -4.0403    0.1893    0.0000 C   0  0  0  0  0  0  0  0  0  0  0  0
   -4.0403   -0.6357    0.0000 C   0  0  0  0  0  0  0  0  0  0  0  0
   -3.3259   -1.0482    0.0000 C   0  0  0  0  0  0  0  0  0  0  0  0
   -2.6114   -0.6357    0.0000 C   0  0  0  0  0  0  0  0  0  0  0  0
   -2.6114    0.1893    0.0000 C   0  0  0  0  0  0  0  0  0  0  0  0
   -4.7548   -1.0482    0.0000 O   0  0  0  0  0  0  0  0  0  0  0  0
   -1.8969    0.6018    0.0000 C   0  0  0  0  0  0  0  0  0  0  0  0
   -1.8969    1.4268    0.0000 O   0  0  0  0  0  0  0  0  0  0  0  0
   -1.1825    0.1893    0.0000 O   0  0  0  0  0  0  0  0  0  0  0  0
   -5.4692   -0.6357    0.0000 C   0  0  0  0  0  0  0  0  0  0  0  0
  1  2  2  0  0  0  0
  2  3  1  0  0  0  0
  3  4  2  0  0  0  0
  4  5  1  0  0  0  0
  5  6  2  0  0  0  0
  6  1  1  0  0  0  0
  6  8  1  0  0  0  0
  8  9  2  0  0  0  0
  8 10  1  0  0  0  0
  3  7  1  0  0  0  0
  7 11  1  0  0  0  0
M  END
