
  MJ192500                      

 15 16  0  0  0  0  0  0  0  0999 V2000
   -4.5759   -0.3803    0.0000 C   0  0  0  0  0  0  0  0  0  0  0  0
   -5.2903   -0.7928    0.0000 C   0  0  0  0  0  0  0  0  0  0  0  0
   -5.2903   -1.6179    0.0000 C   0  0  0  0  0  0  0  0  0  0  0  0
   -4.5759   -2.0304    0.0000 C   0  0  0  0  0  0  0  0  0  0  0  0
   -3.8614   -1.6179    0.0000 C   0  0  0  0  0  0  0  0  0  0  0  0
   -3.8614   -0.7928    0.0000 C   0  0  0  0  0  0  0  0  0  0  0  0
   -6.0748   -0.5378    0.0000 O   0  0  0  0  0  0  0  0  0  0  0  0
   -6.5598   -1.2052    0.0000 C   0  0  0  0  0  0  0  0  0  0  0  0
   -6.0750   -1.8726    0.0000 O   0  0  0  0  0  0  0  0  0  0  0  0
   -3.1469   -2.0304    0.0000 C   0  0  0  0  0  0  0  0  0  0  0  0
   -2.4325   -1.6179    0.0000 C   0  0  0  0  0  0  0  0  0  0  0  0
   -1.7180   -2.0304    0.0000 C   0  0  0  0  0  0  0  0  0  0  0  0
   -3.1469   -2.8554    0.0000 N   0  0  0  0  0  0  0  0  0  0  0  0
   -1.7180   -2.8554    0.0000 O   0  0  0  0  0  0  0  0  0  0  0  0
   -1.0035   -1.6179    0.0000 O   0  0  0  0  0  0  0  0  0  0  0  0
  1  2  2  0  0  0  0
  2  3  1  0  0  0  0
  3  4  2  0  0  0  0
  4  5  1  0  0  0  0
  5  6  2  0  0  0  0
  6  1  1  0  0  0  0
  7  8  1  0  0  0  0
  2  7  1  0  0  0  0
  8  9  1  0  0  0  0
  3  9  1  0  0  0  0
  5 10  1  0  0  0  0
 10 11  1  0  0  0  0
 11 12  1  0  0  0  0
 10 13  1  0  0  0  0
 12 14  1  0  0  0  0
 12 15  2  0  0  0  0
M  END
