
  MJ192500                      

 16 18  0  0  0  0  0  0  0  0999 V2000
   -6.0938    2.4545    0.0000 C   0  0  0  0  0  0  0  0  0  0  0  0
   -6.8082    2.0420    0.0000 C   0  0  0  0  0  0  0  0  0  0  0  0
   -6.8082    1.2169    0.0000 C   0  0  0  0  0  0  0  0  0  0  0  0
   -6.0938    0.8044    0.0000 C   0  0  0  0  0  0  0  0  0  0  0  0
   -5.3793    1.2169    0.0000 C   0  0  0  0  0  0  0  0  0  0  0  0
   -5.3793    2.0420    0.0000 C   0  0  0  0  0  0  0  0  0  0  0  0
   -4.5947    0.9619    0.0000 C   0  0  0  0  0  0  0  0  0  0  0  0
   -4.1097    1.6293    0.0000 C   0  0  0  0  0  0  0  0  0  0  0  0
   -4.5946    2.2967    0.0000 C   0  0  0  0  0  0  0  0  0  0  0  0
   -3.2891    1.7154    0.0000 C   0  0  0  0  0  0  0  0  0  0  0  0
   -2.9535    2.4690    0.0000 C   0  0  0  0  0  0  0  0  0  0  0  0
   -3.4383    3.1365    0.0000 C   0  0  0  0  0  0  0  0  0  0  0  0
   -4.2589    3.0504    0.0000 C   0  0  0  0  0  0  0  0  0  0  0  0
   -4.3398    0.1772    0.0000 C   0  0  0  0  0  0  0  0  0  0  0  0
   -3.5194    0.0910    0.0000 O   0  0  0  0  0  0  0  0  0  0  0  0
   -4.8591   -0.4638    0.0000 O   0  0  0  0  0  0  0  0  0  0  0  0
  1  2  2  0  0  0  0
  2  3  1  0  0  0  0
  3  4  2  0  0  0  0
  4  5  1  0  0  0  0
  5  6  2  0  0  0  0
  6  1  1  0  0  0  0
  7  8  1  0  0  0  0
  8  9  2  0  0  0  0
  5  7  1  0  0  0  0
  6  9  1  0  0  0  0
 10 11  2  0  0  0  0
 11 12  1  0  0  0  0
 12 13  2  0  0  0  0
  8 10  1  0  0  0  0
 13  9  1  0  0  0  0
  7 14  1  0  0  0  0
 14 15  1  0  0  0  0
 14 16  2  0  0  0  0
M  END
