MODEL 1
REMARK VINA RESULT:    -6.659      0.000      0.000
REMARK INTER + INTRA:          -7.176
REMARK INTER:                  -6.951
REMARK INTRA:                  -0.225
REMARK UNBOUND:                -0.128
REMARK  Name = 
REMARK  1 active torsions:
REMARK  status: ('A' for Active; 'I' for Inactive)
REMARK    1  A    between atoms: C_7  and  C_14
REMARK                            x       y       z     vdW  Elec       q    Type
REMARK                         _______ _______ _______ _____ _____    ______ ____
ROOT
ATOM      1  C   UNL     1      18.509 -32.737 -20.386  0.00  0.00    +0.009 A 
ATOM      2  C   UNL     1      19.304 -33.655 -21.055  0.00  0.00    -0.013 A 
ATOM      3  C   UNL     1      19.739 -33.698 -22.436  0.00  0.00    -0.013 A 
ATOM      4  C   UNL     1      19.487 -32.833 -23.489  0.00  0.00    +0.009 A 
ATOM      5  C   UNL     1      20.047 -33.120 -24.738  0.00  0.00    +0.001 A 
ATOM      6  C   UNL     1      20.844 -34.261 -24.924  0.00  0.00    +0.000 A 
ATOM      7  C   UNL     1      21.099 -35.132 -23.862  0.00  0.00    +0.005 A 
ATOM      8  C   UNL     1      20.540 -34.845 -22.627  0.00  0.00    -0.027 A 
ATOM      9  C   UNL     1      20.695 -35.611 -21.319  0.00  0.00    +0.096 C 
ATOM     10  C   UNL     1      19.834 -34.773 -20.376  0.00  0.00    -0.027 A 
ATOM     11  C   UNL     1      19.588 -34.978 -19.026  0.00  0.00    +0.005 A 
ATOM     12  C   UNL     1      18.787 -34.055 -18.352  0.00  0.00    +0.000 A 
ATOM     13  C   UNL     1      18.252 -32.943 -19.026  0.00  0.00    +0.001 A 
ENDROOT
BRANCH   9  14
ATOM     14  C   UNL     1      20.287 -37.088 -21.325  0.00  0.00    +0.053 C 
ATOM     15  O   UNL     1      19.179 -37.400 -21.849  0.00  0.00    -0.549 OA
ATOM     16  O   UNL     1      21.152 -37.873 -20.819  0.00  0.00    -0.549 OA
ENDBRANCH   9  14
TORSDOF 1
ENDMDL
MODEL 2
REMARK VINA RESULT:    -6.493      2.227      5.191
REMARK INTER + INTRA:          -7.000
REMARK INTER:                  -6.784
REMARK INTRA:                  -0.216
REMARK UNBOUND:                -0.128
REMARK  Name = 
REMARK  1 active torsions:
REMARK  status: ('A' for Active; 'I' for Inactive)
REMARK    1  A    between atoms: C_7  and  C_14
REMARK                            x       y       z     vdW  Elec       q    Type
REMARK                         _______ _______ _______ _____ _____    ______ ____
ROOT
ATOM      1  C   UNL     1      21.808 -36.525 -22.883  0.00  0.00    +0.009 A 
ATOM      2  C   UNL     1      21.044 -35.373 -22.777  0.00  0.00    -0.013 A 
ATOM      3  C   UNL     1      20.303 -34.830 -21.658  0.00  0.00    -0.013 A 
ATOM      4  C   UNL     1      20.143 -35.307 -20.366  0.00  0.00    +0.009 A 
ATOM      5  C   UNL     1      19.362 -34.565 -19.473  0.00  0.00    +0.001 A 
ATOM      6  C   UNL     1      18.751 -33.366 -19.876  0.00  0.00    +0.000 A 
ATOM      7  C   UNL     1      18.914 -32.886 -21.178  0.00  0.00    +0.005 A 
ATOM      8  C   UNL     1      19.686 -33.626 -22.059  0.00  0.00    -0.027 A 
ATOM      9  C   UNL     1      20.040 -33.302 -23.506  0.00  0.00    +0.096 C 
ATOM     10  C   UNL     1      20.898 -34.508 -23.883  0.00  0.00    -0.027 A 
ATOM     11  C   UNL     1      21.517 -34.777 -25.095  0.00  0.00    +0.005 A 
ATOM     12  C   UNL     1      22.285 -35.938 -25.202  0.00  0.00    +0.000 A 
ATOM     13  C   UNL     1      22.430 -36.805 -24.105  0.00  0.00    +0.001 A 
ENDROOT
BRANCH   9  14
ATOM     14  C   UNL     1      18.874 -33.087 -24.476  0.00  0.00    +0.053 C 
ATOM     15  O   UNL     1      17.886 -33.874 -24.408  0.00  0.00    -0.549 OA
ATOM     16  O   UNL     1      19.013 -32.084 -25.248  0.00  0.00    -0.549 OA
ENDBRANCH   9  14
TORSDOF 1
ENDMDL
MODEL 3
REMARK VINA RESULT:    -6.296      0.891      4.145
REMARK INTER + INTRA:          -6.792
REMARK INTER:                  -6.574
REMARK INTRA:                  -0.218
REMARK UNBOUND:                -0.128
REMARK  Name = 
REMARK  1 active torsions:
REMARK  status: ('A' for Active; 'I' for Inactive)
REMARK    1  A    between atoms: C_7  and  C_14
REMARK                            x       y       z     vdW  Elec       q    Type
REMARK                         _______ _______ _______ _____ _____    ______ ____
ROOT
ATOM      1  C   UNL     1      20.036 -33.096 -23.661  0.00  0.00    +0.009 A 
ATOM      2  C   UNL     1      20.043 -34.046 -22.651  0.00  0.00    -0.013 A 
ATOM      3  C   UNL     1      19.695 -33.936 -21.250  0.00  0.00    -0.013 A 
ATOM      4  C   UNL     1      19.254 -32.848 -20.512  0.00  0.00    +0.009 A 
ATOM      5  C   UNL     1      18.985 -33.029 -19.151  0.00  0.00    +0.001 A 
ATOM      6  C   UNL     1      19.159 -34.284 -18.544  0.00  0.00    +0.000 A 
ATOM      7  C   UNL     1      19.602 -35.380 -19.288  0.00  0.00    +0.005 A 
ATOM      8  C   UNL     1      19.871 -35.194 -20.635  0.00  0.00    -0.027 A 
ATOM      9  C   UNL     1      20.326 -36.228 -21.658  0.00  0.00    +0.096 C 
ATOM     10  C   UNL     1      20.433 -35.375 -22.920  0.00  0.00    -0.027 A 
ATOM     11  C   UNL     1      20.808 -35.770 -24.196  0.00  0.00    +0.005 A 
ATOM     12  C   UNL     1      20.803 -34.815 -25.213  0.00  0.00    +0.000 A 
ATOM     13  C   UNL     1      20.420 -33.488 -24.949  0.00  0.00    +0.001 A 
ENDROOT
BRANCH   9  14
ATOM     14  C   UNL     1      21.623 -36.985 -21.353  0.00  0.00    +0.053 C 
ATOM     15  O   UNL     1      22.698 -36.323 -21.279  0.00  0.00    -0.549 OA
ATOM     16  O   UNL     1      21.468 -38.234 -21.163  0.00  0.00    -0.549 OA
ENDBRANCH   9  14
TORSDOF 1
ENDMDL
MODEL 4
REMARK VINA RESULT:    -6.240      2.483      3.711
REMARK INTER + INTRA:          -6.732
REMARK INTER:                  -6.506
REMARK INTRA:                  -0.226
REMARK UNBOUND:                -0.128
REMARK  Name = 
REMARK  1 active torsions:
REMARK  status: ('A' for Active; 'I' for Inactive)
REMARK    1  A    between atoms: C_7  and  C_14
REMARK                            x       y       z     vdW  Elec       q    Type
REMARK                         _______ _______ _______ _____ _____    ______ ____
ROOT
ATOM      1  C   UNL     1      20.335 -35.253 -20.329  0.00  0.00    +0.009 A 
ATOM      2  C   UNL     1      20.106 -35.176 -21.695  0.00  0.00    -0.013 A 
ATOM      3  C   UNL     1      20.456 -36.088 -22.763  0.00  0.00    -0.013 A 
ATOM      4  C   UNL     1      21.122 -37.303 -22.731  0.00  0.00    +0.009 A 
ATOM      5  C   UNL     1      21.325 -37.985 -23.935  0.00  0.00    +0.001 A 
ATOM      6  C   UNL     1      20.868 -37.451 -25.151  0.00  0.00    +0.000 A 
ATOM      7  C   UNL     1      20.195 -36.227 -25.183  0.00  0.00    +0.005 A 
ATOM      8  C   UNL     1      19.999 -35.554 -23.987  0.00  0.00    -0.027 A 
ATOM      9  C   UNL     1      19.273 -34.234 -23.756  0.00  0.00    +0.096 C 
ATOM     10  C   UNL     1      19.424 -34.070 -22.245  0.00  0.00    -0.027 A 
ATOM     11  C   UNL     1      18.957 -33.040 -21.441  0.00  0.00    +0.005 A 
ATOM     12  C   UNL     1      19.187 -33.117 -20.067  0.00  0.00    +0.000 A 
ATOM     13  C   UNL     1      19.871 -34.214 -19.515  0.00  0.00    +0.001 A 
ENDROOT
BRANCH   9  14
ATOM     14  C   UNL     1      19.781 -33.014 -24.530  0.00  0.00    +0.053 C 
ATOM     15  O   UNL     1      18.930 -32.263 -25.089  0.00  0.00    -0.549 OA
ATOM     16  O   UNL     1      21.044 -32.861 -24.497  0.00  0.00    -0.549 OA
ENDBRANCH   9  14
TORSDOF 1
ENDMDL
MODEL 5
REMARK VINA RESULT:    -6.113      2.145      3.473
REMARK INTER + INTRA:          -6.599
REMARK INTER:                  -6.378
REMARK INTRA:                  -0.221
REMARK UNBOUND:                -0.128
REMARK  Name = 
REMARK  1 active torsions:
REMARK  status: ('A' for Active; 'I' for Inactive)
REMARK    1  A    between atoms: C_7  and  C_14
REMARK                            x       y       z     vdW  Elec       q    Type
REMARK                         _______ _______ _______ _____ _____    ______ ____
ROOT
ATOM      1  C   UNL     1      21.943 -36.395 -21.114  0.00  0.00    +0.009 A 
ATOM      2  C   UNL     1      20.900 -35.533 -21.413  0.00  0.00    -0.013 A 
ATOM      3  C   UNL     1      20.612 -34.782 -22.617  0.00  0.00    -0.013 A 
ATOM      4  C   UNL     1      21.296 -34.708 -23.821  0.00  0.00    +0.009 A 
ATOM      5  C   UNL     1      20.780 -33.892 -24.833  0.00  0.00    +0.001 A 
ATOM      6  C   UNL     1      19.598 -33.160 -24.635  0.00  0.00    +0.000 A 
ATOM      7  C   UNL     1      18.908 -33.236 -23.423  0.00  0.00    +0.005 A 
ATOM      8  C   UNL     1      19.424 -34.044 -22.422  0.00  0.00    -0.027 A 
ATOM      9  C   UNL     1      18.847 -34.319 -21.038  0.00  0.00    +0.096 C 
ATOM     10  C   UNL     1      19.892 -35.271 -20.461  0.00  0.00    -0.027 A 
ATOM     11  C   UNL     1      19.909 -35.873 -19.211  0.00  0.00    +0.005 A 
ATOM     12  C   UNL     1      20.959 -36.741 -18.909  0.00  0.00    +0.000 A 
ATOM     13  C   UNL     1      21.969 -37.000 -19.852  0.00  0.00    +0.001 A 
ENDROOT
BRANCH   9  14
ATOM     14  C   UNL     1      18.597 -33.107 -20.135  0.00  0.00    +0.053 C 
ATOM     15  O   UNL     1      19.492 -32.215 -20.070  0.00  0.00    -0.549 OA
ATOM     16  O   UNL     1      17.463 -33.110 -19.557  0.00  0.00    -0.549 OA
ENDBRANCH   9  14
TORSDOF 1
ENDMDL
MODEL 6
REMARK VINA RESULT:    -6.037      2.189      4.992
REMARK INTER + INTRA:          -6.518
REMARK INTER:                  -6.331
REMARK INTRA:                  -0.187
REMARK UNBOUND:                -0.128
REMARK  Name = 
REMARK  1 active torsions:
REMARK  status: ('A' for Active; 'I' for Inactive)
REMARK    1  A    between atoms: C_7  and  C_14
REMARK                            x       y       z     vdW  Elec       q    Type
REMARK                         _______ _______ _______ _____ _____    ______ ____
ROOT
ATOM      1  C   UNL     1      20.426 -35.850 -23.161  0.00  0.00    +0.009 A 
ATOM      2  C   UNL     1      20.198 -35.236 -21.939  0.00  0.00    -0.013 A 
ATOM      3  C   UNL     1      20.496 -35.675 -20.592  0.00  0.00    -0.013 A 
ATOM      4  C   UNL     1      21.097 -36.837 -20.133  0.00  0.00    +0.009 A 
ATOM      5  C   UNL     1      21.266 -37.002 -18.754  0.00  0.00    +0.001 A 
ATOM      6  C   UNL     1      20.835 -36.014 -17.853  0.00  0.00    +0.000 A 
ATOM      7  C   UNL     1      20.231 -34.843 -18.316  0.00  0.00    +0.005 A 
ATOM      8  C   UNL     1      20.063 -34.686 -19.683  0.00  0.00    -0.027 A 
ATOM      9  C   UNL     1      19.470 -33.497 -20.431  0.00  0.00    +0.096 C 
ATOM     10  C   UNL     1      19.580 -33.969 -21.879  0.00  0.00    -0.027 A 
ATOM     11  C   UNL     1      19.196 -33.300 -23.033  0.00  0.00    +0.005 A 
ATOM     12  C   UNL     1      19.426 -33.918 -24.263  0.00  0.00    +0.000 A 
ATOM     13  C   UNL     1      20.035 -35.183 -24.327  0.00  0.00    +0.001 A 
ENDROOT
BRANCH   9  14
ATOM     14  C   UNL     1      18.043 -33.082 -20.058  0.00  0.00    +0.053 C 
ATOM     15  O   UNL     1      17.757 -31.850 -20.068  0.00  0.00    -0.549 OA
ATOM     16  O   UNL     1      17.263 -34.056 -19.807  0.00  0.00    -0.549 OA
ENDBRANCH   9  14
TORSDOF 1
ENDMDL
MODEL 7
REMARK VINA RESULT:    -5.957      2.772      4.794
REMARK INTER + INTRA:          -6.433
REMARK INTER:                  -6.220
REMARK INTRA:                  -0.213
REMARK UNBOUND:                -0.128
REMARK  Name = 
REMARK  1 active torsions:
REMARK  status: ('A' for Active; 'I' for Inactive)
REMARK    1  A    between atoms: C_7  and  C_14
REMARK                            x       y       z     vdW  Elec       q    Type
REMARK                         _______ _______ _______ _____ _____    ______ ____
ROOT
ATOM      1  C   UNL     1      22.092 -36.774 -21.511  0.00  0.00    +0.009 A 
ATOM      2  C   UNL     1      21.904 -36.054 -22.680  0.00  0.00    -0.013 A 
ATOM      3  C   UNL     1      20.989 -34.975 -22.987  0.00  0.00    -0.013 A 
ATOM      4  C   UNL     1      20.036 -34.348 -22.199  0.00  0.00    +0.009 A 
ATOM      5  C   UNL     1      19.282 -33.312 -22.761  0.00  0.00    +0.001 A 
ATOM      6  C   UNL     1      19.482 -32.918 -24.095  0.00  0.00    +0.000 A 
ATOM      7  C   UNL     1      20.442 -33.549 -24.888  0.00  0.00    +0.005 A 
ATOM      8  C   UNL     1      21.186 -34.576 -24.327  0.00  0.00    -0.027 A 
ATOM      9  C   UNL     1      22.305 -35.390 -24.966  0.00  0.00    +0.096 C 
ATOM     10  C   UNL     1      22.680 -36.333 -23.825  0.00  0.00    -0.027 A 
ATOM     11  C   UNL     1      23.654 -37.321 -23.812  0.00  0.00    +0.005 A 
ATOM     12  C   UNL     1      23.844 -38.047 -22.635  0.00  0.00    +0.000 A 
ATOM     13  C   UNL     1      23.069 -37.776 -21.493  0.00  0.00    +0.001 A 
ENDROOT
BRANCH   9  14
ATOM     14  C   UNL     1      21.969 -36.140 -26.259  0.00  0.00    +0.053 C 
ATOM     15  O   UNL     1      22.830 -36.147 -27.187  0.00  0.00    -0.549 OA
ATOM     16  O   UNL     1      20.840 -36.726 -26.247  0.00  0.00    -0.549 OA
ENDBRANCH   9  14
TORSDOF 1
ENDMDL
MODEL 8
REMARK VINA RESULT:    -5.610      3.261      5.037
REMARK INTER + INTRA:          -6.066
REMARK INTER:                  -5.882
REMARK INTRA:                  -0.184
REMARK UNBOUND:                -0.128
REMARK  Name = 
REMARK  1 active torsions:
REMARK  status: ('A' for Active; 'I' for Inactive)
REMARK    1  A    between atoms: C_7  and  C_14
REMARK                            x       y       z     vdW  Elec       q    Type
REMARK                         _______ _______ _______ _____ _____    ______ ____
ROOT
ATOM      1  C   UNL     1      19.333 -34.973 -22.812  0.00  0.00    +0.009 A 
ATOM      2  C   UNL     1      19.759 -35.733 -23.891  0.00  0.00    -0.013 A 
ATOM      3  C   UNL     1      19.549 -37.131 -24.202  0.00  0.00    -0.013 A 
ATOM      4  C   UNL     1      18.861 -38.116 -23.512  0.00  0.00    +0.009 A 
ATOM      5  C   UNL     1      18.815 -39.405 -24.055  0.00  0.00    +0.001 A 
ATOM      6  C   UNL     1      19.455 -39.696 -25.271  0.00  0.00    +0.000 A 
ATOM      7  C   UNL     1      20.147 -38.702 -25.967  0.00  0.00    +0.005 A 
ATOM      8  C   UNL     1      20.192 -37.428 -25.423  0.00  0.00    -0.027 A 
ATOM      9  C   UNL     1      20.846 -36.178 -26.000  0.00  0.00    +0.096 C 
ATOM     10  C   UNL     1      20.530 -35.148 -24.917  0.00  0.00    -0.027 A 
ATOM     11  C   UNL     1      20.873 -33.804 -24.884  0.00  0.00    +0.005 A 
ATOM     12  C   UNL     1      20.444 -33.039 -23.798  0.00  0.00    +0.000 A 
ATOM     13  C   UNL     1      19.681 -33.618 -22.770  0.00  0.00    +0.001 A 
ENDROOT
BRANCH   9  14
ATOM     14  C   UNL     1      22.344 -36.257 -26.313  0.00  0.00    +0.053 C 
ATOM     15  O   UNL     1      22.706 -36.195 -27.523  0.00  0.00    -0.549 OA
ATOM     16  O   UNL     1      23.090 -36.342 -25.285  0.00  0.00    -0.549 OA
ENDBRANCH   9  14
TORSDOF 1
ENDMDL
MODEL 9
REMARK VINA RESULT:    -5.564      1.847      4.356
REMARK INTER + INTRA:          -6.018
REMARK INTER:                  -5.889
REMARK INTRA:                  -0.128
REMARK UNBOUND:                -0.128
REMARK  Name = 
REMARK  1 active torsions:
REMARK  status: ('A' for Active; 'I' for Inactive)
REMARK    1  A    between atoms: C_7  and  C_14
REMARK                            x       y       z     vdW  Elec       q    Type
REMARK                         _______ _______ _______ _____ _____    ______ ____
ROOT
ATOM      1  C   UNL     1      21.263 -34.746 -24.427  0.00  0.00    +0.009 A 
ATOM      2  C   UNL     1      21.142 -35.113 -23.095  0.00  0.00    -0.013 A 
ATOM      3  C   UNL     1      21.863 -36.100 -22.319  0.00  0.00    -0.013 A 
ATOM      4  C   UNL     1      22.884 -36.964 -22.682  0.00  0.00    +0.009 A 
ATOM      5  C   UNL     1      23.408 -37.824 -21.711  0.00  0.00    +0.001 A 
ATOM      6  C   UNL     1      22.910 -37.816 -20.398  0.00  0.00    +0.000 A 
ATOM      7  C   UNL     1      21.882 -36.944 -20.032  0.00  0.00    +0.005 A 
ATOM      8  C   UNL     1      21.364 -36.095 -20.998  0.00  0.00    -0.027 A 
ATOM      9  C   UNL     1      20.276 -35.039 -20.843  0.00  0.00    +0.096 C 
ATOM     10  C   UNL     1      20.192 -34.484 -22.263  0.00  0.00    -0.027 A 
ATOM     11  C   UNL     1      19.365 -33.479 -22.745  0.00  0.00    +0.005 A 
ATOM     12  C   UNL     1      19.486 -33.110 -24.086  0.00  0.00    +0.000 A 
ATOM     13  C   UNL     1      20.427 -33.738 -24.920  0.00  0.00    +0.001 A 
ENDROOT
BRANCH   9  14
ATOM     14  C   UNL     1      18.916 -35.513 -20.319  0.00  0.00    +0.053 C 
ATOM     15  O   UNL     1      18.572 -36.709 -20.546  0.00  0.00    -0.549 OA
ATOM     16  O   UNL     1      18.275 -34.634 -19.658  0.00  0.00    -0.549 OA
ENDBRANCH   9  14
TORSDOF 1
ENDMDL
