MODEL 1
REMARK VINA RESULT:    -5.220      0.000      0.000
REMARK INTER + INTRA:          -6.092
REMARK INTER:                  -5.977
REMARK INTRA:                  -0.116
REMARK UNBOUND:                -0.109
REMARK  Name = 
REMARK  3 active torsions:
REMARK  status: ('A' for Active; 'I' for Inactive)
REMARK    1  A    between atoms: C_3  and  C_7
REMARK    2  A    between atoms: C_6  and  C_10
REMARK    3  A    between atoms: C_7  and  O_8
REMARK                            x       y       z     vdW  Elec       q    Type
REMARK                         _______ _______ _______ _____ _____    ______ ____
ROOT
ATOM      1  C   UNL     1      19.206 -32.669 -21.274  0.00  0.00    +0.013 A 
ATOM      2  C   UNL     1      19.546 -33.669 -22.206  0.00  0.00    +0.033 A 
ATOM      3  C   UNL     1      19.987 -34.894 -21.708  0.00  0.00    +0.133 A 
ATOM      4  F   UNL     1      20.297 -35.919 -22.516  0.00  0.00    -0.205 F 
ATOM      5  C   UNL     1      20.097 -35.120 -20.332  0.00  0.00    +0.045 A 
ATOM      6  C   UNL     1      19.772 -34.115 -19.413  0.00  0.00    -0.019 A 
ATOM      7  C   UNL     1      19.313 -32.887 -19.897  0.00  0.00    +0.007 A 
ENDROOT
BRANCH   2   8
ATOM      8  C   UNL     1      19.419 -33.392 -23.681  0.00  0.00    +0.074 C 
ATOM      9  O   UNL     1      18.255 -33.520 -24.181  0.00  0.00    -0.545 OA
ATOM     10  O   UNL     1      20.455 -33.031 -24.318  0.00  0.00    -0.545 OA
ENDBRANCH   2   8
BRANCH   6  11
ATOM     11  C   UNL     1      19.853 -34.374 -17.936  0.00  0.00    +0.191 C 
BRANCH  11  12
ATOM     12  O   UNL     1      20.063 -33.163 -17.221  0.00  0.00    -0.390 OA
ATOM     13  H   UNL     1      20.487 -32.536 -17.835  0.00  0.00    +0.210 HD
ENDBRANCH  11  12
ENDBRANCH   6  11
TORSDOF 3
ENDMDL
MODEL 2
REMARK VINA RESULT:    -4.934      1.725      4.884
REMARK INTER + INTRA:          -5.765
REMARK INTER:                  -5.653
REMARK INTRA:                  -0.112
REMARK UNBOUND:                -0.109
REMARK  Name = 
REMARK  3 active torsions:
REMARK  status: ('A' for Active; 'I' for Inactive)
REMARK    1  A    between atoms: C_3  and  C_7
REMARK    2  A    between atoms: C_6  and  C_10
REMARK    3  A    between atoms: C_7  and  O_8
REMARK                            x       y       z     vdW  Elec       q    Type
REMARK                         _______ _______ _______ _____ _____    ______ ____
ROOT
ATOM      1  C   UNL     1      20.163 -35.293 -20.106  0.00  0.00    +0.013 A 
ATOM      2  C   UNL     1      19.508 -34.164 -19.577  0.00  0.00    +0.033 A 
ATOM      3  C   UNL     1      19.083 -33.183 -20.473  0.00  0.00    +0.133 A 
ATOM      4  F   UNL     1      18.417 -32.092 -20.068  0.00  0.00    -0.205 F 
ATOM      5  C   UNL     1      19.308 -33.312 -21.848  0.00  0.00    +0.045 A 
ATOM      6  C   UNL     1      19.974 -34.429 -22.363  0.00  0.00    -0.019 A 
ATOM      7  C   UNL     1      20.391 -35.428 -21.479  0.00  0.00    +0.007 A 
ENDROOT
BRANCH   2   8
ATOM      8  C   UNL     1      19.284 -34.056 -18.092  0.00  0.00    +0.074 C 
ATOM      9  O   UNL     1      18.331 -34.750 -17.612  0.00  0.00    -0.545 OA
ATOM     10  O   UNL     1      20.061 -33.312 -17.418  0.00  0.00    -0.545 OA
ENDBRANCH   2   8
BRANCH   6  11
ATOM     11  C   UNL     1      20.178 -34.583 -23.844  0.00  0.00    +0.191 C 
BRANCH  11  12
ATOM     12  O   UNL     1      18.988 -34.261 -24.553  0.00  0.00    -0.390 OA
ATOM     13  H   UNL     1      18.324 -33.989 -23.894  0.00  0.00    +0.210 HD
ENDBRANCH  11  12
ENDBRANCH   6  11
TORSDOF 3
ENDMDL
MODEL 3
REMARK VINA RESULT:    -4.903      2.380      3.231
REMARK INTER + INTRA:          -5.729
REMARK INTER:                  -5.620
REMARK INTRA:                  -0.108
REMARK UNBOUND:                -0.109
REMARK  Name = 
REMARK  3 active torsions:
REMARK  status: ('A' for Active; 'I' for Inactive)
REMARK    1  A    between atoms: C_3  and  C_7
REMARK    2  A    between atoms: C_6  and  C_10
REMARK    3  A    between atoms: C_7  and  O_8
REMARK                            x       y       z     vdW  Elec       q    Type
REMARK                         _______ _______ _______ _____ _____    ______ ____
ROOT
ATOM      1  C   UNL     1      20.822 -35.317 -22.656  0.00  0.00    +0.013 A 
ATOM      2  C   UNL     1      20.858 -34.553 -23.839  0.00  0.00    +0.033 A 
ATOM      3  C   UNL     1      20.102 -33.383 -23.877  0.00  0.00    +0.133 A 
ATOM      4  F   UNL     1      20.102 -32.571 -24.944  0.00  0.00    -0.205 F 
ATOM      5  C   UNL     1      19.327 -32.986 -22.781  0.00  0.00    +0.045 A 
ATOM      6  C   UNL     1      19.284 -33.759 -21.616  0.00  0.00    -0.019 A 
ATOM      7  C   UNL     1      20.050 -34.926 -21.558  0.00  0.00    +0.007 A 
ENDROOT
BRANCH   2   8
ATOM      8  C   UNL     1      21.700 -35.011 -25.001  0.00  0.00    +0.074 C 
ATOM      9  O   UNL     1      22.951 -34.789 -24.914  0.00  0.00    -0.545 OA
ATOM     10  O   UNL     1      21.126 -35.602 -25.966  0.00  0.00    -0.545 OA
ENDBRANCH   2   8
BRANCH   6  11
ATOM     11  C   UNL     1      18.483 -33.308 -20.428  0.00  0.00    +0.191 C 
BRANCH  11  12
ATOM     12  O   UNL     1      19.161 -32.274 -19.725  0.00  0.00    -0.390 OA
ATOM     13  H   UNL     1      19.163 -31.488 -20.300  0.00  0.00    +0.210 HD
ENDBRANCH  11  12
ENDBRANCH   6  11
TORSDOF 3
ENDMDL
MODEL 4
REMARK VINA RESULT:    -4.823      1.278      4.656
REMARK INTER + INTRA:          -5.637
REMARK INTER:                  -5.530
REMARK INTRA:                  -0.107
REMARK UNBOUND:                -0.109
REMARK  Name = 
REMARK  3 active torsions:
REMARK  status: ('A' for Active; 'I' for Inactive)
REMARK    1  A    between atoms: C_3  and  C_7
REMARK    2  A    between atoms: C_6  and  C_10
REMARK    3  A    between atoms: C_7  and  O_8
REMARK                            x       y       z     vdW  Elec       q    Type
REMARK                         _______ _______ _______ _____ _____    ______ ____
ROOT
ATOM      1  C   UNL     1      19.105 -32.927 -20.310  0.00  0.00    +0.013 A 
ATOM      2  C   UNL     1      19.409 -34.039 -19.502  0.00  0.00    +0.033 A 
ATOM      3  C   UNL     1      19.933 -35.170 -20.128  0.00  0.00    +0.133 A 
ATOM      4  F   UNL     1      20.289 -36.263 -19.438  0.00  0.00    -0.205 F 
ATOM      5  C   UNL     1      20.142 -35.200 -21.511  0.00  0.00    +0.045 A 
ATOM      6  C   UNL     1      19.822 -34.095 -22.308  0.00  0.00    -0.019 A 
ATOM      7  C   UNL     1      19.311 -32.950 -21.693  0.00  0.00    +0.007 A 
ENDROOT
BRANCH   2   8
ATOM      8  C   UNL     1      19.169 -33.974 -18.016  0.00  0.00    +0.074 C 
ATOM      9  O   UNL     1      20.015 -33.309 -17.337  0.00  0.00    -0.545 OA
ATOM     10  O   UNL     1      18.143 -34.554 -17.546  0.00  0.00    -0.545 OA
ENDBRANCH   2   8
BRANCH   6  11
ATOM     11  C   UNL     1      20.086 -34.118 -23.787  0.00  0.00    +0.191 C 
BRANCH  11  12
ATOM     12  O   UNL     1      18.919 -34.503 -24.502  0.00  0.00    -0.390 OA
ATOM     13  H   UNL     1      19.009 -34.156 -25.408  0.00  0.00    +0.210 HD
ENDBRANCH  11  12
ENDBRANCH   6  11
TORSDOF 3
ENDMDL
MODEL 5
REMARK VINA RESULT:    -4.752      1.780      2.471
REMARK INTER + INTRA:          -5.555
REMARK INTER:                  -5.446
REMARK INTRA:                  -0.110
REMARK UNBOUND:                -0.109
REMARK  Name = 
REMARK  3 active torsions:
REMARK  status: ('A' for Active; 'I' for Inactive)
REMARK    1  A    between atoms: C_3  and  C_7
REMARK    2  A    between atoms: C_6  and  C_10
REMARK    3  A    between atoms: C_7  and  O_8
REMARK                            x       y       z     vdW  Elec       q    Type
REMARK                         _______ _______ _______ _____ _____    ______ ____
ROOT
ATOM      1  C   UNL     1      20.135 -35.780 -20.444  0.00  0.00    +0.013 A 
ATOM      2  C   UNL     1      20.112 -34.993 -21.613  0.00  0.00    +0.033 A 
ATOM      3  C   UNL     1      19.681 -33.673 -21.496  0.00  0.00    +0.133 A 
ATOM      4  F   UNL     1      19.661 -32.837 -22.544  0.00  0.00    -0.205 F 
ATOM      5  C   UNL     1      19.275 -33.150 -20.263  0.00  0.00    +0.045 A 
ATOM      6  C   UNL     1      19.285 -33.943 -19.110  0.00  0.00    -0.019 A 
ATOM      7  C   UNL     1      19.731 -35.263 -19.209  0.00  0.00    +0.007 A 
ENDROOT
BRANCH   2   8
ATOM      8  C   UNL     1      20.553 -35.588 -22.925  0.00  0.00    +0.074 C 
ATOM      9  O   UNL     1      21.805 -35.584 -23.154  0.00  0.00    -0.545 OA
ATOM     10  O   UNL     1      19.667 -36.071 -23.695  0.00  0.00    -0.545 OA
ENDBRANCH   2   8
BRANCH   6  11
ATOM     11  C   UNL     1      18.888 -33.366 -17.782  0.00  0.00    +0.191 C 
BRANCH  11  12
ATOM     12  O   UNL     1      20.031 -33.141 -16.967  0.00  0.00    -0.390 OA
ATOM     13  H   UNL     1      20.801 -33.499 -17.445  0.00  0.00    +0.210 HD
ENDBRANCH  11  12
ENDBRANCH   6  11
TORSDOF 3
ENDMDL
MODEL 6
REMARK VINA RESULT:    -4.564      2.368      4.809
REMARK INTER + INTRA:          -5.340
REMARK INTER:                  -5.237
REMARK INTRA:                  -0.103
REMARK UNBOUND:                -0.109
REMARK  Name = 
REMARK  3 active torsions:
REMARK  status: ('A' for Active; 'I' for Inactive)
REMARK    1  A    between atoms: C_3  and  C_7
REMARK    2  A    between atoms: C_6  and  C_10
REMARK    3  A    between atoms: C_7  and  O_8
REMARK                            x       y       z     vdW  Elec       q    Type
REMARK                         _______ _______ _______ _____ _____    ______ ____
ROOT
ATOM      1  C   UNL     1      19.653 -33.231 -23.311  0.00  0.00    +0.013 A 
ATOM      2  C   UNL     1      19.704 -33.972 -22.114  0.00  0.00    +0.033 A 
ATOM      3  C   UNL     1      20.389 -35.186 -22.133  0.00  0.00    +0.133 A 
ATOM      4  F   UNL     1      20.525 -35.942 -21.034  0.00  0.00    -0.205 F 
ATOM      5  C   UNL     1      20.997 -35.656 -23.302  0.00  0.00    +0.045 A 
ATOM      6  C   UNL     1      20.927 -34.922 -24.491  0.00  0.00    -0.019 A 
ATOM      7  C   UNL     1      20.258 -33.696 -24.483  0.00  0.00    +0.007 A 
ENDROOT
BRANCH   2   8
ATOM      8  C   UNL     1      19.036 -33.438 -20.874  0.00  0.00    +0.074 C 
ATOM      9  O   UNL     1      19.508 -32.353 -20.402  0.00  0.00    -0.545 OA
ATOM     10  O   UNL     1      18.047 -34.075 -20.400  0.00  0.00    -0.545 OA
ENDBRANCH   2   8
BRANCH   6  11
ATOM     11  C   UNL     1      21.616 -35.411 -25.733  0.00  0.00    +0.191 C 
BRANCH  11  12
ATOM     12  O   UNL     1      20.668 -35.882 -26.684  0.00  0.00    -0.390 OA
ATOM     13  H   UNL     1      19.864 -35.341 -26.581  0.00  0.00    +0.210 HD
ENDBRANCH  11  12
ENDBRANCH   6  11
TORSDOF 3
ENDMDL
MODEL 7
REMARK VINA RESULT:    -4.473      2.642      5.035
REMARK INTER + INTRA:          -5.235
REMARK INTER:                  -5.127
REMARK INTRA:                  -0.108
REMARK UNBOUND:                -0.109
REMARK  Name = 
REMARK  3 active torsions:
REMARK  status: ('A' for Active; 'I' for Inactive)
REMARK    1  A    between atoms: C_3  and  C_7
REMARK    2  A    between atoms: C_6  and  C_10
REMARK    3  A    between atoms: C_7  and  O_8
REMARK                            x       y       z     vdW  Elec       q    Type
REMARK                         _______ _______ _______ _____ _____    ______ ____
ROOT
ATOM      1  C   UNL     1      20.725 -35.159 -22.099  0.00  0.00    +0.013 A 
ATOM      2  C   UNL     1      19.774 -34.121 -22.144  0.00  0.00    +0.033 A 
ATOM      3  C   UNL     1      19.467 -33.578 -23.391  0.00  0.00    +0.133 A 
ATOM      4  F   UNL     1      18.547 -32.614 -23.539  0.00  0.00    -0.205 F 
ATOM      5  C   UNL     1      20.089 -34.042 -24.556  0.00  0.00    +0.045 A 
ATOM      6  C   UNL     1      21.045 -35.062 -24.500  0.00  0.00    -0.019 A 
ATOM      7  C   UNL     1      21.350 -35.627 -23.259  0.00  0.00    +0.007 A 
ENDROOT
BRANCH   2   8
ATOM      8  C   UNL     1      19.125 -33.644 -20.871  0.00  0.00    +0.074 C 
ATOM      9  O   UNL     1      18.325 -34.457 -20.306  0.00  0.00    -0.545 OA
ATOM     10  O   UNL     1      19.430 -32.492 -20.435  0.00  0.00    -0.545 OA
ENDBRANCH   2   8
BRANCH   6  11
ATOM     11  C   UNL     1      21.681 -35.584 -25.757  0.00  0.00    +0.191 C 
BRANCH  11  12
ATOM     12  O   UNL     1      20.690 -35.956 -26.706  0.00  0.00    -0.390 OA
ATOM     13  H   UNL     1      21.089 -35.863 -27.590  0.00  0.00    +0.210 HD
ENDBRANCH  11  12
ENDBRANCH   6  11
TORSDOF 3
ENDMDL
MODEL 8
REMARK VINA RESULT:    -4.291      4.365      5.287
REMARK INTER + INTRA:          -5.027
REMARK INTER:                  -4.911
REMARK INTRA:                  -0.117
REMARK UNBOUND:                -0.109
REMARK  Name = 
REMARK  3 active torsions:
REMARK  status: ('A' for Active; 'I' for Inactive)
REMARK    1  A    between atoms: C_3  and  C_7
REMARK    2  A    between atoms: C_6  and  C_10
REMARK    3  A    between atoms: C_7  and  O_8
REMARK                            x       y       z     vdW  Elec       q    Type
REMARK                         _______ _______ _______ _____ _____    ______ ____
ROOT
ATOM      1  C   UNL     1      20.155 -36.125 -24.498  0.00  0.00    +0.013 A 
ATOM      2  C   UNL     1      21.525 -35.798 -24.518  0.00  0.00    +0.033 A 
ATOM      3  C   UNL     1      21.868 -34.447 -24.549  0.00  0.00    +0.133 A 
ATOM      4  F   UNL     1      23.145 -34.037 -24.531  0.00  0.00    -0.205 F 
ATOM      5  C   UNL     1      20.885 -33.451 -24.570  0.00  0.00    +0.045 A 
ATOM      6  C   UNL     1      19.526 -33.785 -24.567  0.00  0.00    -0.019 A 
ATOM      7  C   UNL     1      19.168 -35.135 -24.519  0.00  0.00    +0.007 A 
ENDROOT
BRANCH   2   8
ATOM      8  C   UNL     1      22.557 -36.895 -24.498  0.00  0.00    +0.074 C 
ATOM      9  O   UNL     1      22.702 -37.553 -25.578  0.00  0.00    -0.545 OA
ATOM     10  O   UNL     1      23.224 -37.076 -23.434  0.00  0.00    -0.545 OA
ENDBRANCH   2   8
BRANCH   6  11
ATOM     11  C   UNL     1      18.475 -32.712 -24.548  0.00  0.00    +0.191 C 
BRANCH  11  12
ATOM     12  O   UNL     1      17.172 -33.281 -24.569  0.00  0.00    -0.390 OA
ATOM     13  H   UNL     1      16.602 -32.717 -24.016  0.00  0.00    +0.210 HD
ENDBRANCH  11  12
ENDBRANCH   6  11
TORSDOF 3
ENDMDL
MODEL 9
REMARK VINA RESULT:    -4.155      8.594      9.200
REMARK INTER + INTRA:          -4.871
REMARK INTER:                  -4.762
REMARK INTRA:                  -0.109
REMARK UNBOUND:                -0.109
REMARK  Name = 
REMARK  3 active torsions:
REMARK  status: ('A' for Active; 'I' for Inactive)
REMARK    1  A    between atoms: C_3  and  C_7
REMARK    2  A    between atoms: C_6  and  C_10
REMARK    3  A    between atoms: C_7  and  O_8
REMARK                            x       y       z     vdW  Elec       q    Type
REMARK                         _______ _______ _______ _____ _____    ______ ____
ROOT
ATOM      1  C   UNL     1      13.735 -40.655 -19.259  0.00  0.00    +0.013 A 
ATOM      2  C   UNL     1      12.654 -40.019 -19.899  0.00  0.00    +0.033 A 
ATOM      3  C   UNL     1      12.447 -38.666 -19.629  0.00  0.00    +0.133 A 
ATOM      4  F   UNL     1      11.468 -37.966 -20.219  0.00  0.00    -0.205 F 
ATOM      5  C   UNL     1      13.280 -37.969 -18.747  0.00  0.00    +0.045 A 
ATOM      6  C   UNL     1      14.342 -38.613 -18.103  0.00  0.00    -0.019 A 
ATOM      7  C   UNL     1      14.571 -39.964 -18.376  0.00  0.00    +0.007 A 
ENDROOT
BRANCH   2   8
ATOM      8  C   UNL     1      11.775 -40.800 -20.840  0.00  0.00    +0.074 C 
ATOM      9  O   UNL     1      12.048 -40.701 -22.080  0.00  0.00    -0.545 OA
ATOM     10  O   UNL     1      10.850 -41.515 -20.348  0.00  0.00    -0.545 OA
ENDBRANCH   2   8
BRANCH   6  11
ATOM     11  C   UNL     1      15.257 -37.851 -17.188  0.00  0.00    +0.191 C 
BRANCH  11  12
ATOM     12  O   UNL     1      14.534 -37.296 -16.097  0.00  0.00    -0.390 OA
ATOM     13  H   UNL     1      13.604 -37.571 -16.198  0.00  0.00    +0.210 HD
ENDBRANCH  11  12
ENDBRANCH   6  11
TORSDOF 3
ENDMDL
