
  MJ192500                      

 12 12  0  0  0  0  0  0  0  0999 V2000
   -2.8348   -0.0678    0.0000 C   0  0  0  0  0  0  0  0  0  0  0  0
   -3.5492   -0.4803    0.0000 C   0  0  0  0  0  0  0  0  0  0  0  0
   -3.5492   -1.3054    0.0000 C   0  0  0  0  0  0  0  0  0  0  0  0
   -2.8348   -1.7179    0.0000 C   0  0  0  0  0  0  0  0  0  0  0  0
   -2.1203   -1.3054    0.0000 C   0  0  0  0  0  0  0  0  0  0  0  0
   -2.1203   -0.4803    0.0000 C   0  0  0  0  0  0  0  0  0  0  0  0
   -4.2637   -1.7178    0.0000 C   0  0  0  0  0  0  0  0  0  0  0  0
   -4.9782   -1.3053    0.0000 O   0  0  0  0  0  0  0  0  0  0  0  0
   -1.4059   -1.7179    0.0000 F   0  0  0  0  0  0  0  0  0  0  0  0
   -1.4059   -0.0678    0.0000 C   0  0  0  0  0  0  0  0  0  0  0  0
   -1.4059    0.7571    0.0000 O   0  0  0  0  0  0  0  0  0  0  0  0
   -0.6914   -0.4802    0.0000 O   0  0  0  0  0  0  0  0  0  0  0  0
  1  2  2  0  0  0  0
  2  3  1  0  0  0  0
  3  4  2  0  0  0  0
  4  5  1  0  0  0  0
  5  6  2  0  0  0  0
  6  1  1  0  0  0  0
  3  7  1  0  0  0  0
  6 10  1  0  0  0  0
 10 11  2  0  0  0  0
 10 12  1  0  0  0  0
  7  8  1  0  0  0  0
  5  9  1  0  0  0  0
M  END
