MODEL 1
REMARK VINA RESULT:    -5.504      0.000      0.000
REMARK INTER + INTRA:          -6.268
REMARK INTER:                  -6.124
REMARK INTRA:                  -0.144
REMARK UNBOUND:                -0.120
REMARK  Name = 
REMARK  2 active torsions:
REMARK  status: ('A' for Active; 'I' for Inactive)
REMARK    1  A    between atoms: C_8  and  C_10
REMARK    2  A    between atoms: C_10  and  C_11
REMARK                            x       y       z     vdW  Elec       q    Type
REMARK                         _______ _______ _______ _____ _____    ______ ____
ROOT
ATOM      1  C   UNL     1      19.657 -32.928 -23.763  0.00  0.00    +0.011 A 
ATOM      2  C   UNL     1      20.440 -33.409 -24.822  0.00  0.00    +0.001 A 
ATOM      3  C   UNL     1      21.220 -34.560 -24.676  0.00  0.00    +0.004 A 
ATOM      4  C   UNL     1      21.243 -35.268 -23.470  0.00  0.00    +0.047 A 
ATOM      5  C   UNL     1      20.455 -34.766 -22.436  0.00  0.00    +0.135 A 
ATOM      6  O   UNL     1      20.341 -35.310 -21.195  0.00  0.00    -0.459 OA
ATOM      7  C   UNL     1      19.484 -34.514 -20.483  0.00  0.00    +0.112 A 
ATOM      8  C   UNL     1      19.041 -33.476 -21.279  0.00  0.00    +0.053 A 
ATOM      9  C   UNL     1      19.668 -33.626 -22.542  0.00  0.00    +0.020 A 
ENDROOT
BRANCH   7  10
ATOM     10  C   UNL     1      19.200 -34.940 -19.086  0.00  0.00    +0.126 C 
BRANCH  10  11
ATOM     11  C   UNL     1      19.028 -33.740 -18.150  0.00  0.00    +0.049 C 
ATOM     12  O   UNL     1      20.088 -33.316 -17.604  0.00  0.00    -0.549 OA
ATOM     13  O   UNL     1      17.839 -33.330 -17.999  0.00  0.00    -0.549 OA
ENDBRANCH  10  11
ENDBRANCH   7  10
TORSDOF 2
ENDMDL
MODEL 2
REMARK VINA RESULT:    -5.479      1.145      1.978
REMARK INTER + INTRA:          -6.240
REMARK INTER:                  -6.082
REMARK INTRA:                  -0.158
REMARK UNBOUND:                -0.120
REMARK  Name = 
REMARK  2 active torsions:
REMARK  status: ('A' for Active; 'I' for Inactive)
REMARK    1  A    between atoms: C_8  and  C_10
REMARK    2  A    between atoms: C_10  and  C_11
REMARK                            x       y       z     vdW  Elec       q    Type
REMARK                         _______ _______ _______ _____ _____    ______ ____
ROOT
ATOM      1  C   UNL     1      21.020 -35.346 -22.842  0.00  0.00    +0.011 A 
ATOM      2  C   UNL     1      21.193 -34.843 -24.140  0.00  0.00    +0.001 A 
ATOM      3  C   UNL     1      20.543 -33.676 -24.552  0.00  0.00    +0.004 A 
ATOM      4  C   UNL     1      19.702 -32.973 -23.684  0.00  0.00    +0.047 A 
ATOM      5  C   UNL     1      19.550 -33.497 -22.402  0.00  0.00    +0.135 A 
ATOM      6  O   UNL     1      18.781 -32.960 -21.416  0.00  0.00    -0.459 OA
ATOM      7  C   UNL     1      18.897 -33.778 -20.324  0.00  0.00    +0.112 A 
ATOM      8  C   UNL     1      19.754 -34.822 -20.612  0.00  0.00    +0.053 A 
ATOM      9  C   UNL     1      20.177 -34.653 -21.955  0.00  0.00    +0.020 A 
ENDROOT
BRANCH   7  10
ATOM     10  C   UNL     1      18.142 -33.364 -19.111  0.00  0.00    +0.126 C 
BRANCH  10  11
ATOM     11  C   UNL     1      18.726 -33.984 -17.839  0.00  0.00    +0.049 C 
ATOM     12  O   UNL     1      18.157 -35.038 -17.433  0.00  0.00    -0.549 OA
ATOM     13  O   UNL     1      19.691 -33.351 -17.314  0.00  0.00    -0.549 OA
ENDBRANCH  10  11
ENDBRANCH   7  10
TORSDOF 2
ENDMDL
MODEL 3
REMARK VINA RESULT:    -5.105      2.082      5.022
REMARK INTER + INTRA:          -5.823
REMARK INTER:                  -5.683
REMARK INTRA:                  -0.140
REMARK UNBOUND:                -0.120
REMARK  Name = 
REMARK  2 active torsions:
REMARK  status: ('A' for Active; 'I' for Inactive)
REMARK    1  A    between atoms: C_8  and  C_10
REMARK    2  A    between atoms: C_10  and  C_11
REMARK                            x       y       z     vdW  Elec       q    Type
REMARK                         _______ _______ _______ _____ _____    ______ ____
ROOT
ATOM      1  C   UNL     1      19.231 -33.190 -19.098  0.00  0.00    +0.011 A 
ATOM      2  C   UNL     1      19.681 -33.811 -17.924  0.00  0.00    +0.001 A 
ATOM      3  C   UNL     1      20.373 -35.025 -17.971  0.00  0.00    +0.004 A 
ATOM      4  C   UNL     1      20.641 -35.657 -19.191  0.00  0.00    +0.047 A 
ATOM      5  C   UNL     1      20.181 -35.016 -20.339  0.00  0.00    +0.135 A 
ATOM      6  O   UNL     1      20.343 -35.467 -21.612  0.00  0.00    -0.459 OA
ATOM      7  C   UNL     1      19.743 -34.557 -22.441  0.00  0.00    +0.112 A 
ATOM      8  C   UNL     1      19.216 -33.521 -21.694  0.00  0.00    +0.053 A 
ATOM      9  C   UNL     1      19.489 -33.811 -20.333  0.00  0.00    +0.020 A 
ENDROOT
BRANCH   7  10
ATOM     10  C   UNL     1      19.816 -34.848 -23.899  0.00  0.00    +0.126 C 
BRANCH  10  11
ATOM     11  C   UNL     1      20.770 -33.892 -24.621  0.00  0.00    +0.049 C 
ATOM     12  O   UNL     1      21.943 -34.327 -24.807  0.00  0.00    -0.549 OA
ATOM     13  O   UNL     1      20.287 -32.759 -24.919  0.00  0.00    -0.549 OA
ENDBRANCH  10  11
ENDBRANCH   7  10
TORSDOF 2
ENDMDL
MODEL 4
REMARK VINA RESULT:    -5.013      1.329      1.560
REMARK INTER + INTRA:          -5.720
REMARK INTER:                  -5.562
REMARK INTRA:                  -0.158
REMARK UNBOUND:                -0.120
REMARK  Name = 
REMARK  2 active torsions:
REMARK  status: ('A' for Active; 'I' for Inactive)
REMARK    1  A    between atoms: C_8  and  C_10
REMARK    2  A    between atoms: C_10  and  C_11
REMARK                            x       y       z     vdW  Elec       q    Type
REMARK                         _______ _______ _______ _____ _____    ______ ____
ROOT
ATOM      1  C   UNL     1      19.385 -33.086 -23.407  0.00  0.00    +0.011 A 
ATOM      2  C   UNL     1      20.120 -33.118 -24.600  0.00  0.00    +0.001 A 
ATOM      3  C   UNL     1      21.122 -34.073 -24.803  0.00  0.00    +0.004 A 
ATOM      4  C   UNL     1      21.419 -35.027 -23.823  0.00  0.00    +0.047 A 
ATOM      5  C   UNL     1      20.671 -34.969 -22.649  0.00  0.00    +0.135 A 
ATOM      6  O   UNL     1      20.808 -35.805 -21.585  0.00  0.00    -0.459 OA
ATOM      7  C   UNL     1      19.899 -35.408 -20.641  0.00  0.00    +0.112 A 
ATOM      8  C   UNL     1      19.175 -34.331 -21.115  0.00  0.00    +0.053 A 
ATOM      9  C   UNL     1      19.670 -34.035 -22.410  0.00  0.00    +0.020 A 
ENDROOT
BRANCH   7  10
ATOM     10  C   UNL     1      19.865 -36.207 -19.386  0.00  0.00    +0.126 C 
BRANCH  10  11
ATOM     11  C   UNL     1      20.771 -35.608 -18.307  0.00  0.00    +0.049 C 
ATOM     12  O   UNL     1      22.002 -35.879 -18.415  0.00  0.00    -0.549 OA
ATOM     13  O   UNL     1      20.182 -34.939 -17.406  0.00  0.00    -0.549 OA
ENDBRANCH  10  11
ENDBRANCH   7  10
TORSDOF 2
ENDMDL
MODEL 5
REMARK VINA RESULT:    -4.764      2.295      3.785
REMARK INTER + INTRA:          -5.442
REMARK INTER:                  -5.360
REMARK INTRA:                  -0.082
REMARK UNBOUND:                -0.120
REMARK  Name = 
REMARK  2 active torsions:
REMARK  status: ('A' for Active; 'I' for Inactive)
REMARK    1  A    between atoms: C_8  and  C_10
REMARK    2  A    between atoms: C_10  and  C_11
REMARK                            x       y       z     vdW  Elec       q    Type
REMARK                         _______ _______ _______ _____ _____    ______ ____
ROOT
ATOM      1  C   UNL     1      22.237 -35.909 -26.240  0.00  0.00    +0.011 A 
ATOM      2  C   UNL     1      21.984 -37.156 -26.829  0.00  0.00    +0.001 A 
ATOM      3  C   UNL     1      20.810 -37.860 -26.547  0.00  0.00    +0.004 A 
ATOM      4  C   UNL     1      19.850 -37.342 -25.671  0.00  0.00    +0.047 A 
ATOM      5  C   UNL     1      20.129 -36.102 -25.102  0.00  0.00    +0.135 A 
ATOM      6  O   UNL     1      19.325 -35.433 -24.232  0.00  0.00    -0.459 OA
ATOM      7  C   UNL     1      19.964 -34.267 -23.907  0.00  0.00    +0.112 A 
ATOM      8  C   UNL     1      21.165 -34.188 -24.585  0.00  0.00    +0.053 A 
ATOM      9  C   UNL     1      21.284 -35.372 -25.355  0.00  0.00    +0.020 A 
ENDROOT
BRANCH   7  10
ATOM     10  C   UNL     1      19.245 -33.364 -22.968  0.00  0.00    +0.126 C 
BRANCH  10  11
ATOM     11  C   UNL     1      19.584 -33.675 -21.508  0.00  0.00    +0.049 C 
ATOM     12  O   UNL     1      19.343 -32.749 -20.681  0.00  0.00    -0.549 OA
ATOM     13  O   UNL     1      20.103 -34.812 -21.297  0.00  0.00    -0.549 OA
ENDBRANCH  10  11
ENDBRANCH   7  10
TORSDOF 2
ENDMDL
MODEL 6
REMARK VINA RESULT:    -4.671      2.832      4.337
REMARK INTER + INTRA:          -5.338
REMARK INTER:                  -5.180
REMARK INTRA:                  -0.158
REMARK UNBOUND:                -0.120
REMARK  Name = 
REMARK  2 active torsions:
REMARK  status: ('A' for Active; 'I' for Inactive)
REMARK    1  A    between atoms: C_8  and  C_10
REMARK    2  A    between atoms: C_10  and  C_11
REMARK                            x       y       z     vdW  Elec       q    Type
REMARK                         _______ _______ _______ _____ _____    ______ ____
ROOT
ATOM      1  C   UNL     1      20.056 -34.796 -21.052  0.00  0.00    +0.011 A 
ATOM      2  C   UNL     1      19.399 -33.591 -21.337  0.00  0.00    +0.001 A 
ATOM      3  C   UNL     1      18.954 -32.753 -20.309  0.00  0.00    +0.004 A 
ATOM      4  C   UNL     1      19.152 -33.091 -18.966  0.00  0.00    +0.047 A 
ATOM      5  C   UNL     1      19.807 -34.294 -18.715  0.00  0.00    +0.135 A 
ATOM      6  O   UNL     1      20.095 -34.794 -17.483  0.00  0.00    -0.459 OA
ATOM      7  C   UNL     1      20.731 -35.991 -17.672  0.00  0.00    +0.112 A 
ATOM      8  C   UNL     1      20.862 -36.241 -19.025  0.00  0.00    +0.053 A 
ATOM      9  C   UNL     1      20.263 -35.153 -19.707  0.00  0.00    +0.020 A 
ENDROOT
BRANCH   7  10
ATOM     10  C   UNL     1      21.155 -36.711 -16.441  0.00  0.00    +0.126 C 
BRANCH  10  11
ATOM     11  C   UNL     1      20.077 -37.681 -15.950  0.00  0.00    +0.049 C 
ATOM     12  O   UNL     1      19.161 -37.169 -15.243  0.00  0.00    -0.549 OA
ATOM     13  O   UNL     1      20.243 -38.895 -16.276  0.00  0.00    -0.549 OA
ENDBRANCH  10  11
ENDBRANCH   7  10
TORSDOF 2
ENDMDL
MODEL 7
REMARK VINA RESULT:    -4.537      3.769      5.501
REMARK INTER + INTRA:          -5.188
REMARK INTER:                  -5.065
REMARK INTRA:                  -0.123
REMARK UNBOUND:                -0.120
REMARK  Name = 
REMARK  2 active torsions:
REMARK  status: ('A' for Active; 'I' for Inactive)
REMARK    1  A    between atoms: C_8  and  C_10
REMARK    2  A    between atoms: C_10  and  C_11
REMARK                            x       y       z     vdW  Elec       q    Type
REMARK                         _______ _______ _______ _____ _____    ______ ____
ROOT
ATOM      1  C   UNL     1      18.975 -38.726 -25.184  0.00  0.00    +0.011 A 
ATOM      2  C   UNL     1      19.307 -39.694 -26.143  0.00  0.00    +0.001 A 
ATOM      3  C   UNL     1      20.289 -39.446 -27.107  0.00  0.00    +0.004 A 
ATOM      4  C   UNL     1      20.973 -38.226 -27.144  0.00  0.00    +0.047 A 
ATOM      5  C   UNL     1      20.621 -37.284 -26.178  0.00  0.00    +0.135 A 
ATOM      6  O   UNL     1      21.170 -36.046 -26.047  0.00  0.00    -0.459 OA
ATOM      7  C   UNL     1      20.545 -35.439 -24.991  0.00  0.00    +0.112 A 
ATOM      8  C   UNL     1      19.614 -36.299 -24.442  0.00  0.00    +0.053 A 
ATOM      9  C   UNL     1      19.651 -37.493 -25.206  0.00  0.00    +0.020 A 
ENDROOT
BRANCH   7  10
ATOM     10  C   UNL     1      21.009 -34.065 -24.656  0.00  0.00    +0.126 C 
BRANCH  10  11
ATOM     11  C   UNL     1      19.855 -33.177 -24.180  0.00  0.00    +0.049 C 
ATOM     12  O   UNL     1      19.609 -33.218 -22.940  0.00  0.00    -0.549 OA
ATOM     13  O   UNL     1      19.254 -32.528 -25.088  0.00  0.00    -0.549 OA
ENDBRANCH  10  11
ENDBRANCH   7  10
TORSDOF 2
ENDMDL
MODEL 8
REMARK VINA RESULT:    -4.329      3.136      4.622
REMARK INTER + INTRA:          -4.955
REMARK INTER:                  -4.760
REMARK INTRA:                  -0.196
REMARK UNBOUND:                -0.120
REMARK  Name = 
REMARK  2 active torsions:
REMARK  status: ('A' for Active; 'I' for Inactive)
REMARK    1  A    between atoms: C_8  and  C_10
REMARK    2  A    between atoms: C_10  and  C_11
REMARK                            x       y       z     vdW  Elec       q    Type
REMARK                         _______ _______ _______ _____ _____    ______ ____
ROOT
ATOM      1  C   UNL     1      19.660 -34.414 -21.275  0.00  0.00    +0.011 A 
ATOM      2  C   UNL     1      18.875 -33.339 -20.833  0.00  0.00    +0.001 A 
ATOM      3  C   UNL     1      18.839 -32.981 -19.482  0.00  0.00    +0.004 A 
ATOM      4  C   UNL     1      19.586 -33.683 -18.530  0.00  0.00    +0.047 A 
ATOM      5  C   UNL     1      20.355 -34.745 -18.999  0.00  0.00    +0.135 A 
ATOM      6  O   UNL     1      21.148 -35.544 -18.234  0.00  0.00    -0.459 OA
ATOM      7  C   UNL     1      21.720 -36.464 -19.071  0.00  0.00    +0.112 A 
ATOM      8  C   UNL     1      21.303 -36.238 -20.369  0.00  0.00    +0.053 A 
ATOM      9  C   UNL     1      20.416 -35.132 -20.332  0.00  0.00    +0.020 A 
ENDROOT
BRANCH   7  10
ATOM     10  C   UNL     1      22.650 -37.438 -18.438  0.00  0.00    +0.126 C 
BRANCH  10  11
ATOM     11  C   UNL     1      23.851 -36.740 -17.793  0.00  0.00    +0.049 C 
ATOM     12  O   UNL     1      24.033 -36.987 -16.566  0.00  0.00    -0.549 OA
ATOM     13  O   UNL     1      24.505 -35.965 -18.552  0.00  0.00    -0.549 OA
ENDBRANCH  10  11
ENDBRANCH   7  10
TORSDOF 2
ENDMDL
MODEL 9
REMARK VINA RESULT:    -4.164      2.566      4.424
REMARK INTER + INTRA:          -4.771
REMARK INTER:                  -4.651
REMARK INTRA:                  -0.120
REMARK UNBOUND:                -0.120
REMARK  Name = 
REMARK  2 active torsions:
REMARK  status: ('A' for Active; 'I' for Inactive)
REMARK    1  A    between atoms: C_8  and  C_10
REMARK    2  A    between atoms: C_10  and  C_11
REMARK                            x       y       z     vdW  Elec       q    Type
REMARK                         _______ _______ _______ _____ _____    ______ ____
ROOT
ATOM      1  C   UNL     1      21.821 -37.015 -26.741  0.00  0.00    +0.011 A 
ATOM      2  C   UNL     1      23.153 -37.328 -27.048  0.00  0.00    +0.001 A 
ATOM      3  C   UNL     1      24.210 -36.592 -26.503  0.00  0.00    +0.004 A 
ATOM      4  C   UNL     1      23.972 -35.523 -25.632  0.00  0.00    +0.047 A 
ATOM      5  C   UNL     1      22.638 -35.237 -25.346  0.00  0.00    +0.135 A 
ATOM      6  O   UNL     1      22.203 -34.243 -24.525  0.00  0.00    -0.459 OA
ATOM      7  C   UNL     1      20.835 -34.293 -24.522  0.00  0.00    +0.112 A 
ATOM      8  C   UNL     1      20.404 -35.330 -25.326  0.00  0.00    +0.053 A 
ATOM      9  C   UNL     1      21.562 -35.943 -25.869  0.00  0.00    +0.020 A 
ENDROOT
BRANCH   7  10
ATOM     10  C   UNL     1      20.144 -33.293 -23.664  0.00  0.00    +0.126 C 
BRANCH  10  11
ATOM     11  C   UNL     1      19.705 -33.897 -22.327  0.00  0.00    +0.049 C 
ATOM     12  O   UNL     1      20.378 -34.891 -21.929  0.00  0.00    -0.549 OA
ATOM     13  O   UNL     1      18.693 -33.357 -21.788  0.00  0.00    -0.549 OA
ENDBRANCH  10  11
ENDBRANCH   7  10
TORSDOF 2
ENDMDL
