
  MJ192500                      

 13 14  0  0  0  0  0  0  0  0999 V2000
    4.1141    1.0525    0.0000 C   0  0  0  0  0  0  0  0  0  0  0  0
    3.5011    0.5005    0.0000 C   0  0  0  0  0  0  0  0  0  0  0  0
    3.6726   -0.3065    0.0000 C   0  0  0  0  0  0  0  0  0  0  0  0
    4.4572   -0.5614    0.0000 C   0  0  0  0  0  0  0  0  0  0  0  0
    5.0703   -0.0094    0.0000 C   0  0  0  0  0  0  0  0  0  0  0  0
    4.8987    0.7976    0.0000 C   0  0  0  0  0  0  0  0  0  0  0  0
    2.6806    0.5868    0.0000 C   0  0  0  0  0  0  0  0  0  0  0  0
    2.3450   -0.1668    0.0000 C   0  0  0  0  0  0  0  0  0  0  0  0
    2.9580   -0.7188    0.0000 O   0  0  0  0  0  0  0  0  0  0  0  0
    1.5380   -0.3383    0.0000 C   0  0  0  0  0  0  0  0  0  0  0  0
    0.9860    0.2747    0.0000 C   0  0  0  0  0  0  0  0  0  0  0  0
    1.3215    1.0284    0.0000 O   0  0  0  0  0  0  0  0  0  0  0  0
    0.1711    0.1457    0.0000 O   0  0  0  0  0  0  0  0  0  0  0  0
  1  2  2  0  0  0  0
  2  3  1  0  0  0  0
  3  4  2  0  0  0  0
  4  5  1  0  0  0  0
  5  6  2  0  0  0  0
  6  1  1  0  0  0  0
  7  8  2  0  0  0  0
  2  7  1  0  0  0  0
  8 10  1  0  0  0  0
 10 11  1  0  0  0  0
  8  9  1  0  0  0  0
  3  9  1  0  0  0  0
 11 13  2  0  0  0  0
 11 12  1  0  0  0  0
M  END
