MODEL 1
REMARK VINA RESULT:    -5.641      0.000      0.000
REMARK INTER + INTRA:          -7.373
REMARK INTER:                  -7.409
REMARK INTRA:                   0.035
REMARK UNBOUND:                -0.413
REMARK  Name = 
REMARK  6 active torsions:
REMARK  status: ('A' for Active; 'I' for Inactive)
REMARK    1  A    between atoms: C_1  and  C_11
REMARK    2  A    between atoms: C_4  and  C_7
REMARK    3  A    between atoms: C_7  and  C_8
REMARK    4  A    between atoms: C_11  and  C_12
REMARK    5  A    between atoms: C_12  and  C_13
REMARK    6  A    between atoms: C_12  and  C_14
REMARK                            x       y       z     vdW  Elec       q    Type
REMARK                         _______ _______ _______ _____ _____    ______ ____
ROOT
ATOM      1  C   UNL     1      19.784 -34.690 -22.512  0.00  0.00    -0.047 A 
ATOM      2  C   UNL     1      20.422 -35.505 -21.567  0.00  0.00    +0.004 A 
ATOM      3  C   UNL     1      20.385 -35.181 -20.209  0.00  0.00    +0.004 A 
ATOM      4  C   UNL     1      19.713 -34.036 -19.769  0.00  0.00    -0.042 A 
ATOM      5  C   UNL     1      19.057 -33.233 -20.710  0.00  0.00    +0.004 A 
ATOM      6  C   UNL     1      19.099 -33.552 -22.069  0.00  0.00    +0.004 A 
ENDROOT
BRANCH   1   7
ATOM      7  C   UNL     1      19.826 -35.040 -23.978  0.00  0.00    +0.038 C 
BRANCH   7   8
ATOM      8  C   UNL     1      20.735 -34.119 -24.816  0.00  0.00    -0.013 C 
ATOM      9  C   UNL     1      22.203 -34.430 -24.514  0.00  0.00    +0.007 C 
ATOM     10  C   UNL     1      20.462 -32.635 -24.551  0.00  0.00    +0.007 C 
ENDBRANCH   7   8
ENDBRANCH   1   7
BRANCH   4  11
ATOM     11  C   UNL     1      19.674 -33.687 -18.302  0.00  0.00    +0.087 C 
BRANCH  11  12
ATOM     12  C   UNL     1      18.321 -34.002 -17.664  0.00  0.00    +0.046 C 
ATOM     13  O   UNL     1      17.514 -33.029 -17.598  0.00  0.00    -0.549 OA
ATOM     14  O   UNL     1      18.195 -35.179 -17.216  0.00  0.00    -0.549 OA
ENDBRANCH  11  12
ENDBRANCH   4  11
TORSDOF 4
ENDMDL
MODEL 2
REMARK VINA RESULT:    -5.622      0.136      1.550
REMARK INTER + INTRA:          -7.350
REMARK INTER:                  -7.469
REMARK INTRA:                   0.119
REMARK UNBOUND:                -0.413
REMARK  Name = 
REMARK  6 active torsions:
REMARK  status: ('A' for Active; 'I' for Inactive)
REMARK    1  A    between atoms: C_1  and  C_11
REMARK    2  A    between atoms: C_4  and  C_7
REMARK    3  A    between atoms: C_7  and  C_8
REMARK    4  A    between atoms: C_11  and  C_12
REMARK    5  A    between atoms: C_12  and  C_13
REMARK    6  A    between atoms: C_12  and  C_14
REMARK                            x       y       z     vdW  Elec       q    Type
REMARK                         _______ _______ _______ _____ _____    ______ ____
ROOT
ATOM      1  C   UNL     1      19.714 -34.660 -22.565  0.00  0.00    -0.047 A 
ATOM      2  C   UNL     1      19.210 -33.431 -22.118  0.00  0.00    +0.004 A 
ATOM      3  C   UNL     1      19.208 -33.116 -20.757  0.00  0.00    +0.004 A 
ATOM      4  C   UNL     1      19.708 -34.023 -19.817  0.00  0.00    -0.042 A 
ATOM      5  C   UNL     1      20.231 -35.242 -20.264  0.00  0.00    +0.004 A 
ATOM      6  C   UNL     1      20.228 -35.562 -21.623  0.00  0.00    +0.004 A 
ENDROOT
BRANCH   1   7
ATOM      7  C   UNL     1      19.715 -35.000 -24.033  0.00  0.00    +0.038 C 
BRANCH   7   8
ATOM      8  C   UNL     1      20.653 -34.116 -24.880  0.00  0.00    -0.013 C 
ATOM      9  C   UNL     1      22.111 -34.456 -24.558  0.00  0.00    +0.007 C 
ATOM     10  C   UNL     1      20.414 -32.622 -24.645  0.00  0.00    +0.007 C 
ENDBRANCH   7   8
ENDBRANCH   1   7
BRANCH   4  11
ATOM     11  C   UNL     1      19.704 -33.681 -18.347  0.00  0.00    +0.087 C 
BRANCH  11  12
ATOM     12  C   UNL     1      18.370 -34.005 -17.677  0.00  0.00    +0.046 C 
ATOM     13  O   UNL     1      18.287 -35.161 -17.166  0.00  0.00    -0.549 OA
ATOM     14  O   UNL     1      17.485 -33.106 -17.771  0.00  0.00    -0.549 OA
ENDBRANCH  11  12
ENDBRANCH   4  11
TORSDOF 4
ENDMDL
MODEL 3
REMARK VINA RESULT:    -5.384      1.182      1.601
REMARK INTER + INTRA:          -7.056
REMARK INTER:                  -6.596
REMARK INTRA:                  -0.460
REMARK UNBOUND:                -0.413
REMARK  Name = 
REMARK  6 active torsions:
REMARK  status: ('A' for Active; 'I' for Inactive)
REMARK    1  A    between atoms: C_1  and  C_11
REMARK    2  A    between atoms: C_4  and  C_7
REMARK    3  A    between atoms: C_7  and  C_8
REMARK    4  A    between atoms: C_11  and  C_12
REMARK    5  A    between atoms: C_12  and  C_13
REMARK    6  A    between atoms: C_12  and  C_14
REMARK                            x       y       z     vdW  Elec       q    Type
REMARK                         _______ _______ _______ _____ _____    ______ ____
ROOT
ATOM      1  C   UNL     1      20.131 -35.141 -22.897  0.00  0.00    -0.047 A 
ATOM      2  C   UNL     1      20.343 -35.716 -21.636  0.00  0.00    +0.004 A 
ATOM      3  C   UNL     1      20.045 -35.005 -20.472  0.00  0.00    +0.004 A 
ATOM      4  C   UNL     1      19.531 -33.706 -20.543  0.00  0.00    -0.042 A 
ATOM      5  C   UNL     1      19.299 -33.139 -21.802  0.00  0.00    +0.004 A 
ATOM      6  C   UNL     1      19.603 -33.846 -22.968  0.00  0.00    +0.004 A 
ENDROOT
BRANCH   1   7
ATOM      7  C   UNL     1      20.455 -35.909 -24.153  0.00  0.00    +0.038 C 
BRANCH   7   8
ATOM      8  C   UNL     1      21.329 -35.129 -25.156  0.00  0.00    -0.013 C 
ATOM      9  C   UNL     1      21.494 -35.947 -26.440  0.00  0.00    +0.007 C 
ATOM     10  C   UNL     1      22.709 -34.791 -24.585  0.00  0.00    +0.007 C 
ENDBRANCH   7   8
ENDBRANCH   1   7
BRANCH   4  11
ATOM     11  C   UNL     1      19.210 -32.939 -19.285  0.00  0.00    +0.087 C 
BRANCH  11  12
ATOM     12  C   UNL     1      17.968 -33.478 -18.575  0.00  0.00    +0.046 C 
ATOM     13  O   UNL     1      18.169 -33.951 -17.417  0.00  0.00    -0.549 OA
ATOM     14  O   UNL     1      16.901 -33.449 -19.255  0.00  0.00    -0.549 OA
ENDBRANCH  11  12
ENDBRANCH   4  11
TORSDOF 4
ENDMDL
MODEL 4
REMARK VINA RESULT:    -5.225      3.900      6.178
REMARK INTER + INTRA:          -6.860
REMARK INTER:                  -6.405
REMARK INTRA:                  -0.455
REMARK UNBOUND:                -0.413
REMARK  Name = 
REMARK  6 active torsions:
REMARK  status: ('A' for Active; 'I' for Inactive)
REMARK    1  A    between atoms: C_1  and  C_11
REMARK    2  A    between atoms: C_4  and  C_7
REMARK    3  A    between atoms: C_7  and  C_8
REMARK    4  A    between atoms: C_11  and  C_12
REMARK    5  A    between atoms: C_12  and  C_13
REMARK    6  A    between atoms: C_12  and  C_14
REMARK                            x       y       z     vdW  Elec       q    Type
REMARK                         _______ _______ _______ _____ _____    ______ ____
ROOT
ATOM      1  C   UNL     1      19.725 -33.727 -22.368  0.00  0.00    -0.047 A 
ATOM      2  C   UNL     1      20.318 -34.990 -22.237  0.00  0.00    +0.004 A 
ATOM      3  C   UNL     1      20.963 -35.588 -23.322  0.00  0.00    +0.004 A 
ATOM      4  C   UNL     1      21.026 -34.938 -24.559  0.00  0.00    -0.042 A 
ATOM      5  C   UNL     1      20.452 -33.667 -24.685  0.00  0.00    +0.004 A 
ATOM      6  C   UNL     1      19.801 -33.070 -23.603  0.00  0.00    +0.004 A 
ENDROOT
BRANCH   1   7
ATOM      7  C   UNL     1      19.029 -33.082 -21.196  0.00  0.00    +0.038 C 
BRANCH   7   8
ATOM      8  C   UNL     1      18.761 -34.044 -20.021  0.00  0.00    -0.013 C 
ATOM      9  C   UNL     1      17.273 -34.017 -19.662  0.00  0.00    +0.007 C 
ATOM     10  C   UNL     1      19.591 -33.693 -18.782  0.00  0.00    +0.007 C 
ENDBRANCH   7   8
ENDBRANCH   1   7
BRANCH   4  11
ATOM     11  C   UNL     1      21.722 -35.585 -25.730  0.00  0.00    +0.087 C 
BRANCH  11  12
ATOM     12  C   UNL     1      21.229 -37.009 -25.986  0.00  0.00    +0.046 C 
ATOM     13  O   UNL     1      22.086 -37.921 -25.793  0.00  0.00    -0.549 OA
ATOM     14  O   UNL     1      20.046 -37.102 -26.424  0.00  0.00    -0.549 OA
ENDBRANCH  11  12
ENDBRANCH   4  11
TORSDOF 4
ENDMDL
MODEL 5
REMARK VINA RESULT:    -5.085      1.798      2.451
REMARK INTER + INTRA:          -6.687
REMARK INTER:                  -6.268
REMARK INTRA:                  -0.419
REMARK UNBOUND:                -0.413
REMARK  Name = 
REMARK  6 active torsions:
REMARK  status: ('A' for Active; 'I' for Inactive)
REMARK    1  A    between atoms: C_1  and  C_11
REMARK    2  A    between atoms: C_4  and  C_7
REMARK    3  A    between atoms: C_7  and  C_8
REMARK    4  A    between atoms: C_11  and  C_12
REMARK    5  A    between atoms: C_12  and  C_13
REMARK    6  A    between atoms: C_12  and  C_14
REMARK                            x       y       z     vdW  Elec       q    Type
REMARK                         _______ _______ _______ _____ _____    ______ ____
ROOT
ATOM      1  C   UNL     1      19.570 -33.606 -21.201  0.00  0.00    -0.047 A 
ATOM      2  C   UNL     1      20.168 -34.855 -21.414  0.00  0.00    +0.004 A 
ATOM      3  C   UNL     1      20.551 -35.653 -20.333  0.00  0.00    +0.004 A 
ATOM      4  C   UNL     1      20.345 -35.218 -19.019  0.00  0.00    -0.042 A 
ATOM      5  C   UNL     1      19.728 -33.980 -18.806  0.00  0.00    +0.004 A 
ATOM      6  C   UNL     1      19.352 -33.177 -19.885  0.00  0.00    +0.004 A 
ENDROOT
BRANCH   1   7
ATOM      7  C   UNL     1      19.159 -32.745 -22.368  0.00  0.00    +0.038 C 
BRANCH   7   8
ATOM      8  C   UNL     1      19.254 -33.454 -23.734  0.00  0.00    -0.013 C 
ATOM      9  C   UNL     1      20.440 -32.896 -24.523  0.00  0.00    +0.007 C 
ATOM     10  C   UNL     1      17.973 -33.299 -24.560  0.00  0.00    +0.007 C 
ENDBRANCH   7   8
ENDBRANCH   1   7
BRANCH   4  11
ATOM     11  C   UNL     1      20.759 -36.081 -17.853  0.00  0.00    +0.087 C 
BRANCH  11  12
ATOM     12  C   UNL     1      19.625 -36.980 -17.363  0.00  0.00    +0.046 C 
ATOM     13  O   UNL     1      18.917 -36.499 -16.430  0.00  0.00    -0.549 OA
ATOM     14  O   UNL     1      19.572 -38.125 -17.900  0.00  0.00    -0.549 OA
ENDBRANCH  11  12
ENDBRANCH   4  11
TORSDOF 4
ENDMDL
MODEL 6
REMARK VINA RESULT:    -4.948      1.786      2.679
REMARK INTER + INTRA:          -6.519
REMARK INTER:                  -6.072
REMARK INTRA:                  -0.447
REMARK UNBOUND:                -0.413
REMARK  Name = 
REMARK  6 active torsions:
REMARK  status: ('A' for Active; 'I' for Inactive)
REMARK    1  A    between atoms: C_1  and  C_11
REMARK    2  A    between atoms: C_4  and  C_7
REMARK    3  A    between atoms: C_7  and  C_8
REMARK    4  A    between atoms: C_11  and  C_12
REMARK    5  A    between atoms: C_12  and  C_13
REMARK    6  A    between atoms: C_12  and  C_14
REMARK                            x       y       z     vdW  Elec       q    Type
REMARK                         _______ _______ _______ _____ _____    ______ ____
ROOT
ATOM      1  C   UNL     1      20.625 -35.333 -22.680  0.00  0.00    -0.047 A 
ATOM      2  C   UNL     1      19.972 -34.199 -23.181  0.00  0.00    +0.004 A 
ATOM      3  C   UNL     1      19.324 -33.313 -22.317  0.00  0.00    +0.004 A 
ATOM      4  C   UNL     1      19.313 -33.544 -20.938  0.00  0.00    -0.042 A 
ATOM      5  C   UNL     1      19.983 -34.665 -20.435  0.00  0.00    +0.004 A 
ATOM      6  C   UNL     1      20.626 -35.556 -21.297  0.00  0.00    +0.004 A 
ENDROOT
BRANCH   1   7
ATOM      7  C   UNL     1      21.323 -36.290 -23.613  0.00  0.00    +0.038 C 
BRANCH   7   8
ATOM      8  C   UNL     1      20.389 -37.337 -24.251  0.00  0.00    -0.013 C 
ATOM      9  C   UNL     1      21.027 -38.726 -24.151  0.00  0.00    +0.007 C 
ATOM     10  C   UNL     1      20.077 -37.023 -25.717  0.00  0.00    +0.007 C 
ENDBRANCH   7   8
ENDBRANCH   1   7
BRANCH   4  11
ATOM     11  C   UNL     1      18.612 -32.587 -20.006  0.00  0.00    +0.087 C 
BRANCH  11  12
ATOM     12  C   UNL     1      17.621 -33.293 -19.082  0.00  0.00    +0.046 C 
ATOM     13  O   UNL     1      17.918 -33.274 -17.852  0.00  0.00    -0.549 OA
ATOM     14  O   UNL     1      16.656 -33.871 -19.664  0.00  0.00    -0.549 OA
ENDBRANCH  11  12
ENDBRANCH   4  11
TORSDOF 4
ENDMDL
MODEL 7
REMARK VINA RESULT:    -4.793      4.395      6.701
REMARK INTER + INTRA:          -6.326
REMARK INTER:                  -6.026
REMARK INTRA:                  -0.300
REMARK UNBOUND:                -0.413
REMARK  Name = 
REMARK  6 active torsions:
REMARK  status: ('A' for Active; 'I' for Inactive)
REMARK    1  A    between atoms: C_1  and  C_11
REMARK    2  A    between atoms: C_4  and  C_7
REMARK    3  A    between atoms: C_7  and  C_8
REMARK    4  A    between atoms: C_11  and  C_12
REMARK    5  A    between atoms: C_12  and  C_13
REMARK    6  A    between atoms: C_12  and  C_14
REMARK                            x       y       z     vdW  Elec       q    Type
REMARK                         _______ _______ _______ _____ _____    ______ ____
ROOT
ATOM      1  C   UNL     1      20.194 -34.361 -23.891  0.00  0.00    -0.047 A 
ATOM      2  C   UNL     1      19.384 -35.414 -24.336  0.00  0.00    +0.004 A 
ATOM      3  C   UNL     1      19.867 -36.338 -25.266  0.00  0.00    +0.004 A 
ATOM      4  C   UNL     1      21.167 -36.225 -25.771  0.00  0.00    -0.042 A 
ATOM      5  C   UNL     1      21.983 -35.186 -25.311  0.00  0.00    +0.004 A 
ATOM      6  C   UNL     1      21.500 -34.257 -24.386  0.00  0.00    +0.004 A 
ENDROOT
BRANCH   1   7
ATOM      7  C   UNL     1      19.671 -33.364 -22.887  0.00  0.00    +0.038 C 
BRANCH   7   8
ATOM      8  C   UNL     1      19.304 -33.982 -21.523  0.00  0.00    -0.013 C 
ATOM      9  C   UNL     1      19.194 -32.877 -20.469  0.00  0.00    +0.007 C 
ATOM     10  C   UNL     1      20.326 -35.026 -21.064  0.00  0.00    +0.007 C 
ENDBRANCH   7   8
ENDBRANCH   1   7
BRANCH   4  11
ATOM     11  C   UNL     1      21.687 -37.223 -26.776  0.00  0.00    +0.087 C 
BRANCH  11  12
ATOM     12  C   UNL     1      21.072 -38.610 -26.592  0.00  0.00    +0.046 C 
ATOM     13  O   UNL     1      21.496 -39.262 -25.593  0.00  0.00    -0.549 OA
ATOM     14  O   UNL     1      20.263 -38.967 -27.497  0.00  0.00    -0.549 OA
ENDBRANCH  11  12
ENDBRANCH   4  11
TORSDOF 4
ENDMDL
MODEL 8
REMARK VINA RESULT:    -4.763      3.738      6.055
REMARK INTER + INTRA:          -6.290
REMARK INTER:                  -5.851
REMARK INTRA:                  -0.439
REMARK UNBOUND:                -0.413
REMARK  Name = 
REMARK  6 active torsions:
REMARK  status: ('A' for Active; 'I' for Inactive)
REMARK    1  A    between atoms: C_1  and  C_11
REMARK    2  A    between atoms: C_4  and  C_7
REMARK    3  A    between atoms: C_7  and  C_8
REMARK    4  A    between atoms: C_11  and  C_12
REMARK    5  A    between atoms: C_12  and  C_13
REMARK    6  A    between atoms: C_12  and  C_14
REMARK                            x       y       z     vdW  Elec       q    Type
REMARK                         _______ _______ _______ _____ _____    ______ ____
ROOT
ATOM      1  C   UNL     1      19.662 -33.925 -21.300  0.00  0.00    -0.047 A 
ATOM      2  C   UNL     1      19.638 -33.524 -22.642  0.00  0.00    +0.004 A 
ATOM      3  C   UNL     1      20.284 -34.281 -23.622  0.00  0.00    +0.004 A 
ATOM      4  C   UNL     1      20.967 -35.453 -23.281  0.00  0.00    -0.042 A 
ATOM      5  C   UNL     1      20.974 -35.866 -21.943  0.00  0.00    +0.004 A 
ATOM      6  C   UNL     1      20.334 -35.107 -20.961  0.00  0.00    +0.004 A 
ENDROOT
BRANCH   1   7
ATOM      7  C   UNL     1      18.966 -33.107 -20.243  0.00  0.00    +0.038 C 
BRANCH   7   8
ATOM      8  C   UNL     1      18.221 -33.950 -19.188  0.00  0.00    -0.013 C 
ATOM      9  C   UNL     1      16.754 -34.108 -19.597  0.00  0.00    +0.007 C 
ATOM     10  C   UNL     1      18.296 -33.330 -17.789  0.00  0.00    +0.007 C 
ENDBRANCH   7   8
ENDBRANCH   1   7
BRANCH   4  11
ATOM     11  C   UNL     1      21.665 -36.269 -24.340  0.00  0.00    +0.087 C 
BRANCH  11  12
ATOM     12  C   UNL     1      20.798 -36.473 -25.583  0.00  0.00    +0.046 C 
ATOM     13  O   UNL     1      21.197 -35.873 -26.624  0.00  0.00    -0.549 OA
ATOM     14  O   UNL     1      19.751 -37.161 -25.406  0.00  0.00    -0.549 OA
ENDBRANCH  11  12
ENDBRANCH   4  11
TORSDOF 4
ENDMDL
MODEL 9
REMARK VINA RESULT:    -4.587      5.364      7.496
REMARK INTER + INTRA:          -6.073
REMARK INTER:                  -5.659
REMARK INTRA:                  -0.413
REMARK UNBOUND:                -0.413
REMARK  Name = 
REMARK  6 active torsions:
REMARK  status: ('A' for Active; 'I' for Inactive)
REMARK    1  A    between atoms: C_1  and  C_11
REMARK    2  A    between atoms: C_4  and  C_7
REMARK    3  A    between atoms: C_7  and  C_8
REMARK    4  A    between atoms: C_11  and  C_12
REMARK    5  A    between atoms: C_12  and  C_13
REMARK    6  A    between atoms: C_12  and  C_14
REMARK                            x       y       z     vdW  Elec       q    Type
REMARK                         _______ _______ _______ _____ _____    ______ ____
ROOT
ATOM      1  C   UNL     1      21.424 -34.779 -24.913  0.00  0.00    -0.047 A 
ATOM      2  C   UNL     1      21.009 -35.577 -25.987  0.00  0.00    +0.004 A 
ATOM      3  C   UNL     1      21.672 -36.770 -26.283  0.00  0.00    +0.004 A 
ATOM      4  C   UNL     1      22.763 -37.189 -25.514  0.00  0.00    -0.042 A 
ATOM      5  C   UNL     1      23.165 -36.403 -24.427  0.00  0.00    +0.004 A 
ATOM      6  C   UNL     1      22.508 -35.206 -24.134  0.00  0.00    +0.004 A 
ENDROOT
BRANCH   1   7
ATOM      7  C   UNL     1      20.709 -33.491 -24.594  0.00  0.00    +0.038 C 
BRANCH   7   8
ATOM      8  C   UNL     1      19.325 -33.687 -23.944  0.00  0.00    -0.013 C 
ATOM      9  C   UNL     1      18.314 -32.733 -24.587  0.00  0.00    +0.007 C 
ATOM     10  C   UNL     1      19.354 -33.454 -22.431  0.00  0.00    +0.007 C 
ENDBRANCH   7   8
ENDBRANCH   1   7
BRANCH   4  11
ATOM     11  C   UNL     1      23.478 -38.477 -25.835  0.00  0.00    +0.087 C 
BRANCH  11  12
ATOM     12  C   UNL     1      23.961 -38.530 -27.284  0.00  0.00    +0.046 C 
ATOM     13  O   UNL     1      24.695 -37.563 -27.645  0.00  0.00    -0.549 OA
ATOM     14  O   UNL     1      23.516 -39.497 -27.969  0.00  0.00    -0.549 OA
ENDBRANCH  11  12
ENDBRANCH   4  11
TORSDOF 4
ENDMDL
