
  MJ192500                      

 14 14  0  0  0  0  0  0  0  0999 V2000
   -2.5446    0.8696    0.0000 C   0  0  0  0  0  0  0  0  0  0  0  0
   -3.2590    0.4571    0.0000 C   0  0  0  0  0  0  0  0  0  0  0  0
   -3.2590   -0.3679    0.0000 C   0  0  0  0  0  0  0  0  0  0  0  0
   -2.5446   -0.7804    0.0000 C   0  0  0  0  0  0  0  0  0  0  0  0
   -1.8301   -0.3679    0.0000 C   0  0  0  0  0  0  0  0  0  0  0  0
   -1.8301    0.4571    0.0000 C   0  0  0  0  0  0  0  0  0  0  0  0
   -2.5447   -1.6054    0.0000 C   0  0  0  0  0  0  0  0  0  0  0  0
   -3.2592   -2.0178    0.0000 C   0  0  0  0  0  0  0  0  0  0  0  0
   -3.9736   -1.6053    0.0000 O   0  0  0  0  0  0  0  0  0  0  0  0
   -3.2592   -2.8428    0.0000 O   0  0  0  0  0  0  0  0  0  0  0  0
   -2.5447    1.6946    0.0000 C   0  0  0  0  0  0  0  0  0  0  0  0
   -1.8772    2.1796    0.0000 C   0  0  0  0  0  0  0  0  0  0  0  0
   -1.1628    1.7671    0.0000 C   0  0  0  0  0  0  0  0  0  0  0  0
   -1.9204    3.0034    0.0000 C   0  0  0  0  0  0  0  0  0  0  0  0
  1  2  2  0  0  0  0
  2  3  1  0  0  0  0
  3  4  2  0  0  0  0
  4  5  1  0  0  0  0
  5  6  2  0  0  0  0
  6  1  1  0  0  0  0
  4  7  1  0  0  0  0
  7  8  1  0  0  0  0
  1 11  1  0  0  0  0
 11 12  1  0  0  0  0
 12 13  1  0  0  0  0
 12 14  1  0  0  0  0
  8  9  1  0  0  0  0
  8 10  2  0  0  0  0
M  END
