MODEL 1
REMARK VINA RESULT:    -5.154      0.000      0.000
REMARK INTER + INTRA:          -6.254
REMARK INTER:                  -6.084
REMARK INTRA:                  -0.170
REMARK UNBOUND:                -0.196
REMARK  Name = 
REMARK  4 active torsions:
REMARK  status: ('A' for Active; 'I' for Inactive)
REMARK    1  A    between atoms: C_3  and  O_7
REMARK    2  A    between atoms: C_6  and  C_10
REMARK    3  A    between atoms: O_7  and  C_8
REMARK    4  A    between atoms: C_8  and  C_9
REMARK                            x       y       z     vdW  Elec       q    Type
REMARK                         _______ _______ _______ _____ _____    ______ ____
ROOT
ATOM      1  C   UNL     1      19.306 -33.234 -19.977  0.00  0.00    +0.013 A 
ATOM      2  C   UNL     1      19.848 -34.342 -19.306  0.00  0.00    -0.002 A 
ATOM      3  C   UNL     1      20.335 -35.405 -20.079  0.00  0.00    +0.013 A 
ATOM      4  C   UNL     1      20.283 -35.360 -21.477  0.00  0.00    +0.046 A 
ATOM      5  C   UNL     1      19.743 -34.252 -22.132  0.00  0.00    +0.121 A 
ATOM      6  C   UNL     1      19.253 -33.188 -21.376  0.00  0.00    +0.046 A 
ENDROOT
BRANCH   2   7
ATOM      7  C   UNL     1      19.904 -34.384 -17.791  0.00  0.00    +0.072 C 
ATOM      8  O   UNL     1      20.148 -35.510 -17.251  0.00  0.00    -0.545 OA
ATOM      9  O   UNL     1      19.703 -33.291 -17.173  0.00  0.00    -0.545 OA
ENDBRANCH   2   7
BRANCH   5  10
ATOM     10  O   UNL     1      19.754 -34.331 -23.500  0.00  0.00    -0.492 OA
BRANCH  10  11
ATOM     11  C   UNL     1      20.342 -33.235 -24.198  0.00  0.00    +0.225 C 
ATOM     12  C   UNL     1      19.235 -32.506 -24.939  0.00  0.00    +0.048 C 
ENDBRANCH  10  11
ENDBRANCH   5  10
TORSDOF 3
ENDMDL
MODEL 2
REMARK VINA RESULT:    -5.054      0.493      1.479
REMARK INTER + INTRA:          -6.136
REMARK INTER:                  -5.962
REMARK INTRA:                  -0.174
REMARK UNBOUND:                -0.196
REMARK  Name = 
REMARK  4 active torsions:
REMARK  status: ('A' for Active; 'I' for Inactive)
REMARK    1  A    between atoms: C_3  and  O_7
REMARK    2  A    between atoms: C_6  and  C_10
REMARK    3  A    between atoms: O_7  and  C_8
REMARK    4  A    between atoms: C_8  and  C_9
REMARK                            x       y       z     vdW  Elec       q    Type
REMARK                         _______ _______ _______ _____ _____    ______ ____
ROOT
ATOM      1  C   UNL     1      20.294 -35.445 -19.875  0.00  0.00    +0.013 A 
ATOM      2  C   UNL     1      19.791 -34.313 -19.215  0.00  0.00    -0.002 A 
ATOM      3  C   UNL     1      19.309 -33.254 -19.998  0.00  0.00    +0.013 A 
ATOM      4  C   UNL     1      19.328 -33.328 -21.395  0.00  0.00    +0.046 A 
ATOM      5  C   UNL     1      19.829 -34.460 -22.040  0.00  0.00    +0.121 A 
ATOM      6  C   UNL     1      20.315 -35.520 -21.274  0.00  0.00    +0.046 A 
ENDROOT
BRANCH   2   7
ATOM      7  C   UNL     1      19.771 -34.240 -17.700  0.00  0.00    +0.072 C 
ATOM      8  O   UNL     1      20.346 -35.181 -17.067  0.00  0.00    -0.545 OA
ATOM      9  O   UNL     1      19.180 -33.243 -17.175  0.00  0.00    -0.545 OA
ENDBRANCH   2   7
BRANCH   5  10
ATOM     10  O   UNL     1      19.789 -34.408 -23.408  0.00  0.00    -0.492 OA
BRANCH  10  11
ATOM     11  C   UNL     1      18.857 -33.494 -23.984  0.00  0.00    +0.225 C 
ATOM     12  C   UNL     1      19.626 -32.556 -24.897  0.00  0.00    +0.048 C 
ENDBRANCH  10  11
ENDBRANCH   5  10
TORSDOF 3
ENDMDL
MODEL 3
REMARK VINA RESULT:    -4.487      1.373      5.220
REMARK INTER + INTRA:          -5.471
REMARK INTER:                  -5.353
REMARK INTRA:                  -0.118
REMARK UNBOUND:                -0.196
REMARK  Name = 
REMARK  4 active torsions:
REMARK  status: ('A' for Active; 'I' for Inactive)
REMARK    1  A    between atoms: C_3  and  O_7
REMARK    2  A    between atoms: C_6  and  C_10
REMARK    3  A    between atoms: O_7  and  C_8
REMARK    4  A    between atoms: C_8  and  C_9
REMARK                            x       y       z     vdW  Elec       q    Type
REMARK                         _______ _______ _______ _____ _____    ______ ____
ROOT
ATOM      1  C   UNL     1      19.384 -33.132 -22.272  0.00  0.00    +0.013 A 
ATOM      2  C   UNL     1      20.126 -34.032 -23.053  0.00  0.00    -0.002 A 
ATOM      3  C   UNL     1      20.643 -35.175 -22.428  0.00  0.00    +0.013 A 
ATOM      4  C   UNL     1      20.422 -35.411 -21.066  0.00  0.00    +0.046 A 
ATOM      5  C   UNL     1      19.680 -34.510 -20.300  0.00  0.00    +0.121 A 
ATOM      6  C   UNL     1      19.162 -33.367 -20.909  0.00  0.00    +0.046 A 
ENDROOT
BRANCH   2   7
ATOM      7  C   UNL     1      20.361 -33.772 -24.529  0.00  0.00    +0.072 C 
ATOM      8  O   UNL     1      19.987 -32.645 -24.985  0.00  0.00    -0.545 OA
ATOM      9  O   UNL     1      20.913 -34.700 -25.201  0.00  0.00    -0.545 OA
ENDBRANCH   2   7
BRANCH   5  10
ATOM     10  O   UNL     1      19.534 -34.858 -18.984  0.00  0.00    -0.492 OA
BRANCH  10  11
ATOM     11  C   UNL     1      19.534 -33.792 -18.037  0.00  0.00    +0.225 C 
ATOM     12  C   UNL     1      18.101 -33.565 -17.588  0.00  0.00    +0.048 C 
ENDBRANCH  10  11
ENDBRANCH   5  10
TORSDOF 3
ENDMDL
MODEL 4
REMARK VINA RESULT:    -4.428      2.541      3.631
REMARK INTER + INTRA:          -5.401
REMARK INTER:                  -5.167
REMARK INTRA:                  -0.234
REMARK UNBOUND:                -0.196
REMARK  Name = 
REMARK  4 active torsions:
REMARK  status: ('A' for Active; 'I' for Inactive)
REMARK    1  A    between atoms: C_3  and  O_7
REMARK    2  A    between atoms: C_6  and  C_10
REMARK    3  A    between atoms: O_7  and  C_8
REMARK    4  A    between atoms: C_8  and  C_9
REMARK                            x       y       z     vdW  Elec       q    Type
REMARK                         _______ _______ _______ _____ _____    ______ ____
ROOT
ATOM      1  C   UNL     1      20.472 -35.099 -22.064  0.00  0.00    +0.013 A 
ATOM      2  C   UNL     1      19.722 -33.913 -22.082  0.00  0.00    -0.002 A 
ATOM      3  C   UNL     1      19.655 -33.195 -23.285  0.00  0.00    +0.013 A 
ATOM      4  C   UNL     1      20.316 -33.651 -24.430  0.00  0.00    +0.046 A 
ATOM      5  C   UNL     1      21.059 -34.833 -24.400  0.00  0.00    +0.121 A 
ATOM      6  C   UNL     1      21.135 -35.556 -23.210  0.00  0.00    +0.046 A 
ENDROOT
BRANCH   2   7
ATOM      7  C   UNL     1      19.005 -33.426 -20.837  0.00  0.00    +0.072 C 
ATOM      8  O   UNL     1      19.385 -32.315 -20.348  0.00  0.00    -0.545 OA
ATOM      9  O   UNL     1      18.078 -34.164 -20.375  0.00  0.00    -0.545 OA
ENDBRANCH   2   7
BRANCH   5  10
ATOM     10  O   UNL     1      21.653 -35.169 -25.587  0.00  0.00    -0.492 OA
BRANCH  10  11
ATOM     11  C   UNL     1      21.775 -36.562 -25.869  0.00  0.00    +0.225 C 
ATOM     12  C   UNL     1      20.484 -37.022 -26.521  0.00  0.00    +0.048 C 
ENDBRANCH  10  11
ENDBRANCH   5  10
TORSDOF 3
ENDMDL
MODEL 5
REMARK VINA RESULT:    -4.194      1.909      5.323
REMARK INTER + INTRA:          -5.127
REMARK INTER:                  -4.899
REMARK INTRA:                  -0.228
REMARK UNBOUND:                -0.196
REMARK  Name = 
REMARK  4 active torsions:
REMARK  status: ('A' for Active; 'I' for Inactive)
REMARK    1  A    between atoms: C_3  and  O_7
REMARK    2  A    between atoms: C_6  and  C_10
REMARK    3  A    between atoms: O_7  and  C_8
REMARK    4  A    between atoms: C_8  and  C_9
REMARK                            x       y       z     vdW  Elec       q    Type
REMARK                         _______ _______ _______ _____ _____    ______ ____
ROOT
ATOM      1  C   UNL     1      20.958 -35.640 -22.418  0.00  0.00    +0.013 A 
ATOM      2  C   UNL     1      20.910 -34.680 -23.440  0.00  0.00    -0.002 A 
ATOM      3  C   UNL     1      20.049 -33.585 -23.276  0.00  0.00    +0.013 A 
ATOM      4  C   UNL     1      19.264 -33.456 -22.126  0.00  0.00    +0.046 A 
ATOM      5  C   UNL     1      19.321 -34.417 -21.114  0.00  0.00    +0.121 A 
ATOM      6  C   UNL     1      20.172 -35.512 -21.265  0.00  0.00    +0.046 A 
ENDROOT
BRANCH   2   7
ATOM      7  C   UNL     1      21.766 -34.824 -24.684  0.00  0.00    +0.072 C 
ATOM      8  O   UNL     1      21.204 -35.299 -25.722  0.00  0.00    -0.545 OA
ATOM      9  O   UNL     1      22.982 -34.460 -24.598  0.00  0.00    -0.545 OA
ENDBRANCH   2   7
BRANCH   5  10
ATOM     10  O   UNL     1      18.506 -34.172 -20.041  0.00  0.00    -0.492 OA
BRANCH  10  11
ATOM     11  C   UNL     1      18.881 -33.092 -19.188  0.00  0.00    +0.225 C 
ATOM     12  C   UNL     1      19.720 -33.660 -18.057  0.00  0.00    +0.048 C 
ENDBRANCH  10  11
ENDBRANCH   5  10
TORSDOF 3
ENDMDL
MODEL 6
REMARK VINA RESULT:    -4.040      1.504      2.417
REMARK INTER + INTRA:          -4.945
REMARK INTER:                  -4.738
REMARK INTRA:                  -0.207
REMARK UNBOUND:                -0.196
REMARK  Name = 
REMARK  4 active torsions:
REMARK  status: ('A' for Active; 'I' for Inactive)
REMARK    1  A    between atoms: C_3  and  O_7
REMARK    2  A    between atoms: C_6  and  C_10
REMARK    3  A    between atoms: O_7  and  C_8
REMARK    4  A    between atoms: C_8  and  C_9
REMARK                            x       y       z     vdW  Elec       q    Type
REMARK                         _______ _______ _______ _____ _____    ______ ____
ROOT
ATOM      1  C   UNL     1      21.483 -35.982 -19.444  0.00  0.00    +0.013 A 
ATOM      2  C   UNL     1      20.435 -35.102 -19.130  0.00  0.00    -0.002 A 
ATOM      3  C   UNL     1      19.711 -34.536 -20.189  0.00  0.00    +0.013 A 
ATOM      4  C   UNL     1      20.024 -34.843 -21.517  0.00  0.00    +0.046 A 
ATOM      5  C   UNL     1      21.067 -35.722 -21.818  0.00  0.00    +0.121 A 
ATOM      6  C   UNL     1      21.797 -36.290 -20.774  0.00  0.00    +0.046 A 
ENDROOT
BRANCH   2   7
ATOM      7  C   UNL     1      20.100 -34.775 -17.688  0.00  0.00    +0.072 C 
ATOM      8  O   UNL     1      19.828 -33.562 -17.417  0.00  0.00    -0.545 OA
ATOM      9  O   UNL     1      20.115 -35.737 -16.856  0.00  0.00    -0.545 OA
ENDBRANCH   2   7
BRANCH   5  10
ATOM     10  O   UNL     1      21.268 -35.941 -23.155  0.00  0.00    -0.492 OA
BRANCH  10  11
ATOM     11  C   UNL     1      21.230 -34.794 -24.002  0.00  0.00    +0.225 C 
ATOM     12  C   UNL     1      22.570 -34.691 -24.709  0.00  0.00    +0.048 C 
ENDBRANCH  10  11
ENDBRANCH   5  10
TORSDOF 3
ENDMDL
MODEL 7
REMARK VINA RESULT:    -3.994      8.897      9.427
REMARK INTER + INTRA:          -4.891
REMARK INTER:                  -4.709
REMARK INTRA:                  -0.182
REMARK UNBOUND:                -0.196
REMARK  Name = 
REMARK  4 active torsions:
REMARK  status: ('A' for Active; 'I' for Inactive)
REMARK    1  A    between atoms: C_3  and  O_7
REMARK    2  A    between atoms: C_6  and  C_10
REMARK    3  A    between atoms: O_7  and  C_8
REMARK    4  A    between atoms: C_8  and  C_9
REMARK                            x       y       z     vdW  Elec       q    Type
REMARK                         _______ _______ _______ _____ _____    ______ ____
ROOT
ATOM      1  C   UNL     1      14.028 -39.209 -19.009  0.00  0.00    +0.013 A 
ATOM      2  C   UNL     1      12.950 -38.322 -19.157  0.00  0.00    -0.002 A 
ATOM      3  C   UNL     1      11.987 -38.612 -20.133  0.00  0.00    +0.013 A 
ATOM      4  C   UNL     1      12.099 -39.753 -20.934  0.00  0.00    +0.046 A 
ATOM      5  C   UNL     1      13.174 -40.630 -20.777  0.00  0.00    +0.121 A 
ATOM      6  C   UNL     1      14.140 -40.353 -19.811  0.00  0.00    +0.046 A 
ENDROOT
BRANCH   2   7
ATOM      7  C   UNL     1      12.834 -37.087 -18.283  0.00  0.00    +0.072 C 
ATOM      8  O   UNL     1      12.410 -36.023 -18.837  0.00  0.00    -0.545 OA
ATOM      9  O   UNL     1      13.170 -37.207 -17.062  0.00  0.00    -0.545 OA
ENDBRANCH   2   7
BRANCH   5  10
ATOM     10  O   UNL     1      13.163 -41.709 -21.620  0.00  0.00    -0.492 OA
BRANCH  10  11
ATOM     11  C   UNL     1      11.942 -41.971 -22.308  0.00  0.00    +0.225 C 
ATOM     12  C   UNL     1      11.975 -43.410 -22.789  0.00  0.00    +0.048 C 
ENDBRANCH  10  11
ENDBRANCH   5  10
TORSDOF 3
ENDMDL
MODEL 8
REMARK VINA RESULT:    -3.967      4.727      7.477
REMARK INTER + INTRA:          -4.859
REMARK INTER:                  -4.648
REMARK INTRA:                  -0.211
REMARK UNBOUND:                -0.196
REMARK  Name = 
REMARK  4 active torsions:
REMARK  status: ('A' for Active; 'I' for Inactive)
REMARK    1  A    between atoms: C_3  and  O_7
REMARK    2  A    between atoms: C_6  and  C_10
REMARK    3  A    between atoms: O_7  and  C_8
REMARK    4  A    between atoms: C_8  and  C_9
REMARK                            x       y       z     vdW  Elec       q    Type
REMARK                         _______ _______ _______ _____ _____    ______ ____
ROOT
ATOM      1  C   UNL     1      24.002 -35.193 -25.383  0.00  0.00    +0.013 A 
ATOM      2  C   UNL     1      24.066 -36.024 -26.512  0.00  0.00    -0.002 A 
ATOM      3  C   UNL     1      22.860 -36.493 -27.054  0.00  0.00    +0.013 A 
ATOM      4  C   UNL     1      21.632 -36.139 -26.484  0.00  0.00    +0.046 A 
ATOM      5  C   UNL     1      21.581 -35.310 -25.362  0.00  0.00    +0.121 A 
ATOM      6  C   UNL     1      22.773 -34.838 -24.812  0.00  0.00    +0.046 A 
ENDROOT
BRANCH   2   7
ATOM      7  C   UNL     1      25.400 -36.402 -27.127  0.00  0.00    +0.072 C 
ATOM      8  O   UNL     1      26.417 -36.376 -26.363  0.00  0.00    -0.545 OA
ATOM      9  O   UNL     1      25.403 -36.716 -28.359  0.00  0.00    -0.545 OA
ENDBRANCH   2   7
BRANCH   5  10
ATOM     10  O   UNL     1      20.319 -35.037 -24.905  0.00  0.00    -0.492 OA
BRANCH  10  11
ATOM     11  C   UNL     1      20.196 -33.971 -23.966  0.00  0.00    +0.225 C 
ATOM     12  C   UNL     1      19.789 -32.723 -24.728  0.00  0.00    +0.048 C 
ENDBRANCH  10  11
ENDBRANCH   5  10
TORSDOF 3
ENDMDL
MODEL 9
REMARK VINA RESULT:    -3.701      7.752      9.596
REMARK INTER + INTRA:          -4.547
REMARK INTER:                  -4.350
REMARK INTRA:                  -0.196
REMARK UNBOUND:                -0.196
REMARK  Name = 
REMARK  4 active torsions:
REMARK  status: ('A' for Active; 'I' for Inactive)
REMARK    1  A    between atoms: C_3  and  O_7
REMARK    2  A    between atoms: C_6  and  C_10
REMARK    3  A    between atoms: O_7  and  C_8
REMARK    4  A    between atoms: C_8  and  C_9
REMARK                            x       y       z     vdW  Elec       q    Type
REMARK                         _______ _______ _______ _____ _____    ______ ____
ROOT
ATOM      1  C   UNL     1      13.957 -40.157 -18.868  0.00  0.00    +0.013 A 
ATOM      2  C   UNL     1      13.315 -38.973 -19.263  0.00  0.00    -0.002 A 
ATOM      3  C   UNL     1      13.598 -37.800 -18.549  0.00  0.00    +0.013 A 
ATOM      4  C   UNL     1      14.496 -37.813 -17.476  0.00  0.00    +0.046 A 
ATOM      5  C   UNL     1      15.130 -38.996 -17.093  0.00  0.00    +0.121 A 
ATOM      6  C   UNL     1      14.856 -40.170 -17.794  0.00  0.00    +0.046 A 
ENDROOT
BRANCH   2   7
ATOM      7  C   UNL     1      12.345 -38.966 -20.429  0.00  0.00    +0.072 C 
ATOM      8  O   UNL     1      12.608 -39.735 -21.407  0.00  0.00    -0.545 OA
ATOM      9  O   UNL     1      11.340 -38.190 -20.343  0.00  0.00    -0.545 OA
ENDBRANCH   2   7
BRANCH   5  10
ATOM     10  O   UNL     1      15.986 -38.872 -16.031  0.00  0.00    -0.492 OA
BRANCH  10  11
ATOM     11  C   UNL     1      15.921 -39.891 -15.036  0.00  0.00    +0.225 C 
ATOM     12  C   UNL     1      15.563 -39.232 -13.716  0.00  0.00    +0.048 C 
ENDBRANCH  10  11
ENDBRANCH   5  10
TORSDOF 3
ENDMDL
