
  MJ192500                      

 12 12  0  0  0  0  0  0  0  0999 V2000
   -2.0089    0.0661    0.0000 C   0  0  0  0  0  0  0  0  0  0  0  0
   -2.7233   -0.3463    0.0000 C   0  0  0  0  0  0  0  0  0  0  0  0
   -2.7233   -1.1714    0.0000 C   0  0  0  0  0  0  0  0  0  0  0  0
   -2.0089   -1.5839    0.0000 C   0  0  0  0  0  0  0  0  0  0  0  0
   -1.2944   -1.1714    0.0000 C   0  0  0  0  0  0  0  0  0  0  0  0
   -1.2944   -0.3463    0.0000 C   0  0  0  0  0  0  0  0  0  0  0  0
   -3.4378   -1.5839    0.0000 O   0  0  0  0  0  0  0  0  0  0  0  0
   -4.1523   -1.1714    0.0000 C   0  0  0  0  0  0  0  0  0  0  0  0
   -4.8668   -1.5839    0.0000 C   0  0  0  0  0  0  0  0  0  0  0  0
   -0.5800    0.0661    0.0000 C   0  0  0  0  0  0  0  0  0  0  0  0
   -0.5800    0.8911    0.0000 O   0  0  0  0  0  0  0  0  0  0  0  0
    0.1344   -0.3463    0.0000 O   0  0  0  0  0  0  0  0  0  0  0  0
  1  2  2  0  0  0  0
  2  3  1  0  0  0  0
  3  4  2  0  0  0  0
  4  5  1  0  0  0  0
  5  6  2  0  0  0  0
  6  1  1  0  0  0  0
  3  7  1  0  0  0  0
  7  8  1  0  0  0  0
  8  9  1  0  0  0  0
  6 10  1  0  0  0  0
 10 11  2  0  0  0  0
 10 12  1  0  0  0  0
M  END
