
  MJ192500                      

 14 15  0  0  0  0  0  0  0  0999 V2000
   -5.0000   -0.4249    0.0000 C   0  0  0  0  0  0  0  0  0  0  0  0
   -5.7144   -0.8374    0.0000 C   0  0  0  0  0  0  0  0  0  0  0  0
   -5.7144   -1.6625    0.0000 C   0  0  0  0  0  0  0  0  0  0  0  0
   -5.0000   -2.0750    0.0000 C   0  0  0  0  0  0  0  0  0  0  0  0
   -4.2855   -1.6625    0.0000 C   0  0  0  0  0  0  0  0  0  0  0  0
   -4.2855   -0.8374    0.0000 C   0  0  0  0  0  0  0  0  0  0  0  0
   -3.5709   -2.0750    0.0000 C   0  0  0  0  0  0  0  0  0  0  0  0
   -2.8565   -1.6624    0.0000 C   0  0  0  0  0  0  0  0  0  0  0  0
   -2.8565   -0.8374    0.0000 C   0  0  0  0  0  0  0  0  0  0  0  0
   -3.5710   -0.4249    0.0000 C   0  0  0  0  0  0  0  0  0  0  0  0
   -3.5709   -2.9000    0.0000 O   0  0  0  0  0  0  0  0  0  0  0  0
   -3.5710    0.4000    0.0000 C   0  0  0  0  0  0  0  0  0  0  0  0
   -4.2855    0.8125    0.0000 O   0  0  0  0  0  0  0  0  0  0  0  0
   -2.8566    0.8125    0.0000 O   0  0  0  0  0  0  0  0  0  0  0  0
  1  2  2  0  0  0  0
  2  3  1  0  0  0  0
  3  4  2  0  0  0  0
  4  5  1  0  0  0  0
  5  6  2  0  0  0  0
  6  1  1  0  0  0  0
  7  8  1  0  0  0  0
  8  9  1  0  0  0  0
  9 10  1  0  0  0  0
  5  7  1  0  0  0  0
  6 10  1  0  0  0  0
 10 12  1  0  0  0  0
 12 13  2  0  0  0  0
 12 14  1  0  0  0  0
  7 11  2  0  0  0  0
M  END
