MODEL 1
REMARK VINA RESULT:    -5.779      0.000      0.000
REMARK INTER + INTRA:          -6.205
REMARK INTER:                  -6.122
REMARK INTRA:                  -0.083
REMARK UNBOUND:                -0.088
REMARK  Name = 
REMARK  1 active torsions:
REMARK  status: ('A' for Active; 'I' for Inactive)
REMARK    1  A    between atoms: C_10  and  C_12
REMARK                            x       y       z     vdW  Elec       q    Type
REMARK                         _______ _______ _______ _____ _____    ______ ____
ROOT
ATOM      1  C   UNL     1      19.297 -32.979 -21.472  0.00  0.00    +0.005 A 
ATOM      2  C   UNL     1      19.798 -33.696 -22.572  0.00  0.00    -0.028 A 
ATOM      3  C   UNL     1      19.730 -33.078 -23.955  0.00  0.00    +0.066 C 
ATOM      4  C   UNL     1      20.765 -33.703 -24.894  0.00  0.00    +0.022 C 
ATOM      5  C   UNL     1      20.758 -35.224 -24.872  0.00  0.00    +0.080 C 
ATOM      6  C   UNL     1      20.899 -35.770 -23.472  0.00  0.00    +0.163 C 
ATOM      7  O   UNL     1      21.427 -36.860 -23.256  0.00  0.00    -0.292 OA
ATOM      8  C   UNL     1      20.350 -34.965 -22.349  0.00  0.00    +0.021 A 
ATOM      9  C   UNL     1      20.409 -35.494 -21.050  0.00  0.00    +0.011 A 
ATOM     10  C   UNL     1      19.915 -34.765 -19.969  0.00  0.00    +0.001 A 
ATOM     11  C   UNL     1      19.356 -33.508 -20.182  0.00  0.00    +0.000 A 
ENDROOT
BRANCH   3  12
ATOM     12  C   UNL     1      18.280 -33.092 -24.494  0.00  0.00    +0.049 C 
ATOM     13  O   UNL     1      17.693 -34.209 -24.494  0.00  0.00    -0.549 OA
ATOM     14  O   UNL     1      17.858 -31.972 -24.911  0.00  0.00    -0.549 OA
ENDBRANCH   3  12
TORSDOF 1
ENDMDL
MODEL 2
REMARK VINA RESULT:    -5.353      2.257      3.503
REMARK INTER + INTRA:          -5.754
REMARK INTER:                  -5.647
REMARK INTRA:                  -0.108
REMARK UNBOUND:                -0.088
REMARK  Name = 
REMARK  1 active torsions:
REMARK  status: ('A' for Active; 'I' for Inactive)
REMARK    1  A    between atoms: C_10  and  C_12
REMARK                            x       y       z     vdW  Elec       q    Type
REMARK                         _______ _______ _______ _____ _____    ______ ____
ROOT
ATOM      1  C   UNL     1      20.431 -33.452 -24.906  0.00  0.00    +0.005 A 
ATOM      2  C   UNL     1      21.113 -34.539 -24.332  0.00  0.00    -0.028 A 
ATOM      3  C   UNL     1      22.192 -35.245 -25.130  0.00  0.00    +0.066 C 
ATOM      4  C   UNL     1      23.163 -35.990 -24.210  0.00  0.00    +0.022 C 
ATOM      5  C   UNL     1      22.466 -36.857 -23.172  0.00  0.00    +0.080 C 
ATOM      6  C   UNL     1      21.455 -36.074 -22.371  0.00  0.00    +0.163 C 
ATOM      7  O   UNL     1      21.179 -36.378 -21.210  0.00  0.00    -0.292 OA
ATOM      8  C   UNL     1      20.768 -34.934 -23.032  0.00  0.00    +0.021 A 
ATOM      9  C   UNL     1      19.774 -34.243 -22.322  0.00  0.00    +0.011 A 
ATOM     10  C   UNL     1      19.114 -33.162 -22.904  0.00  0.00    +0.001 A 
ATOM     11  C   UNL     1      19.442 -32.768 -24.198  0.00  0.00    +0.000 A 
ENDROOT
BRANCH   3  12
ATOM     12  C   UNL     1      21.573 -36.111 -26.251  0.00  0.00    +0.049 C 
ATOM     13  O   UNL     1      20.460 -36.649 -25.994  0.00  0.00    -0.549 OA
ATOM     14  O   UNL     1      22.280 -36.210 -27.297  0.00  0.00    -0.549 OA
ENDBRANCH   3  12
TORSDOF 1
ENDMDL
MODEL 3
REMARK VINA RESULT:    -5.348      1.856      4.586
REMARK INTER + INTRA:          -5.748
REMARK INTER:                  -5.635
REMARK INTRA:                  -0.113
REMARK UNBOUND:                -0.088
REMARK  Name = 
REMARK  1 active torsions:
REMARK  status: ('A' for Active; 'I' for Inactive)
REMARK    1  A    between atoms: C_10  and  C_12
REMARK                            x       y       z     vdW  Elec       q    Type
REMARK                         _______ _______ _______ _____ _____    ______ ____
ROOT
ATOM      1  C   UNL     1      21.192 -34.911 -24.006  0.00  0.00    +0.005 A 
ATOM      2  C   UNL     1      20.654 -34.930 -22.708  0.00  0.00    -0.028 A 
ATOM      3  C   UNL     1      21.092 -36.008 -21.737  0.00  0.00    +0.066 C 
ATOM      4  C   UNL     1      20.860 -35.576 -20.287  0.00  0.00    +0.022 C 
ATOM      5  C   UNL     1      19.466 -35.021 -20.039  0.00  0.00    +0.080 C 
ATOM      6  C   UNL     1      19.123 -33.906 -20.996  0.00  0.00    +0.163 C 
ATOM      7  O   UNL     1      18.349 -33.003 -20.682  0.00  0.00    -0.292 OA
ATOM      8  C   UNL     1      19.725 -33.940 -22.355  0.00  0.00    +0.021 A 
ATOM      9  C   UNL     1      19.359 -32.950 -23.279  0.00  0.00    +0.011 A 
ATOM     10  C   UNL     1      19.909 -32.942 -24.560  0.00  0.00    +0.001 A 
ATOM     11  C   UNL     1      20.824 -33.926 -24.924  0.00  0.00    +0.000 A 
ENDROOT
BRANCH   3  12
ATOM     12  C   UNL     1      20.469 -37.373 -22.110  0.00  0.00    +0.049 C 
ATOM     13  O   UNL     1      19.300 -37.344 -22.587  0.00  0.00    -0.549 OA
ATOM     14  O   UNL     1      21.199 -38.377 -21.858  0.00  0.00    -0.549 OA
ENDBRANCH   3  12
TORSDOF 1
ENDMDL
MODEL 4
REMARK VINA RESULT:    -5.253      2.132      3.883
REMARK INTER + INTRA:          -5.648
REMARK INTER:                  -5.994
REMARK INTRA:                   0.345
REMARK UNBOUND:                -0.088
REMARK  Name = 
REMARK  1 active torsions:
REMARK  status: ('A' for Active; 'I' for Inactive)
REMARK    1  A    between atoms: C_10  and  C_12
REMARK                            x       y       z     vdW  Elec       q    Type
REMARK                         _______ _______ _______ _____ _____    ______ ____
ROOT
ATOM      1  C   UNL     1      18.992 -33.393 -23.045  0.00  0.00    +0.005 A 
ATOM      2  C   UNL     1      19.749 -34.380 -22.390  0.00  0.00    -0.028 A 
ATOM      3  C   UNL     1      19.311 -34.868 -21.023  0.00  0.00    +0.066 C 
ATOM      4  C   UNL     1      19.882 -36.256 -20.721  0.00  0.00    +0.022 C 
ATOM      5  C   UNL     1      21.374 -36.366 -20.991  0.00  0.00    +0.080 C 
ATOM      6  C   UNL     1      21.728 -35.930 -22.391  0.00  0.00    +0.163 C 
ATOM      7  O   UNL     1      22.697 -36.400 -22.987  0.00  0.00    -0.292 OA
ATOM      8  C   UNL     1      20.889 -34.883 -23.032  0.00  0.00    +0.021 A 
ATOM      9  C   UNL     1      21.250 -34.416 -24.305  0.00  0.00    +0.011 A 
ATOM     10  C   UNL     1      20.483 -33.443 -24.943  0.00  0.00    +0.001 A 
ATOM     11  C   UNL     1      19.354 -32.930 -24.310  0.00  0.00    +0.000 A 
ENDROOT
BRANCH   3  12
ATOM     12  C   UNL     1      19.600 -33.802 -19.940  0.00  0.00    +0.049 C 
ATOM     13  O   UNL     1      19.443 -32.598 -20.282  0.00  0.00    -0.549 OA
ATOM     14  O   UNL     1      20.000 -34.268 -18.831  0.00  0.00    -0.549 OA
ENDBRANCH   3  12
TORSDOF 1
ENDMDL
MODEL 5
REMARK VINA RESULT:    -5.224      2.600      5.394
REMARK INTER + INTRA:          -5.617
REMARK INTER:                  -5.531
REMARK INTRA:                  -0.086
REMARK UNBOUND:                -0.088
REMARK  Name = 
REMARK  1 active torsions:
REMARK  status: ('A' for Active; 'I' for Inactive)
REMARK    1  A    between atoms: C_10  and  C_12
REMARK                            x       y       z     vdW  Elec       q    Type
REMARK                         _______ _______ _______ _____ _____    ______ ____
ROOT
ATOM      1  C   UNL     1      20.731 -35.531 -21.556  0.00  0.00    +0.005 A 
ATOM      2  C   UNL     1      20.099 -34.851 -20.501  0.00  0.00    -0.028 A 
ATOM      3  C   UNL     1      20.329 -35.312 -19.075  0.00  0.00    +0.066 C 
ATOM      4  C   UNL     1      20.042 -34.188 -18.076  0.00  0.00    +0.022 C 
ATOM      5  C   UNL     1      18.711 -33.493 -18.316  0.00  0.00    +0.080 C 
ATOM      6  C   UNL     1      18.579 -33.000 -19.736  0.00  0.00    +0.163 C 
ATOM      7  O   UNL     1      17.898 -32.013 -20.015  0.00  0.00    -0.292 OA
ATOM      8  C   UNL     1      19.273 -33.761 -20.808  0.00  0.00    +0.021 A 
ATOM      9  C   UNL     1      19.099 -33.356 -22.141  0.00  0.00    +0.011 A 
ATOM     10  C   UNL     1      19.741 -34.037 -23.174  0.00  0.00    +0.001 A 
ATOM     11  C   UNL     1      20.556 -35.127 -22.881  0.00  0.00    +0.000 A 
ENDROOT
BRANCH   3  12
ATOM     12  C   UNL     1      19.574 -36.632 -18.794  0.00  0.00    +0.049 C 
ATOM     13  O   UNL     1      20.236 -37.547 -18.230  0.00  0.00    -0.549 OA
ATOM     14  O   UNL     1      18.374 -36.655 -19.202  0.00  0.00    -0.549 OA
ENDBRANCH   3  12
TORSDOF 1
ENDMDL
MODEL 6
REMARK VINA RESULT:    -5.167      3.087      5.301
REMARK INTER + INTRA:          -5.557
REMARK INTER:                  -5.438
REMARK INTRA:                  -0.119
REMARK UNBOUND:                -0.088
REMARK  Name = 
REMARK  1 active torsions:
REMARK  status: ('A' for Active; 'I' for Inactive)
REMARK    1  A    between atoms: C_10  and  C_12
REMARK                            x       y       z     vdW  Elec       q    Type
REMARK                         _______ _______ _______ _____ _____    ______ ____
ROOT
ATOM      1  C   UNL     1      20.006 -34.844 -21.796  0.00  0.00    +0.005 A 
ATOM      2  C   UNL     1      20.185 -35.132 -20.433  0.00  0.00    -0.028 A 
ATOM      3  C   UNL     1      20.812 -36.452 -20.028  0.00  0.00    +0.066 C 
ATOM      4  C   UNL     1      21.418 -36.371 -18.624  0.00  0.00    +0.022 C 
ATOM      5  C   UNL     1      20.474 -35.769 -17.594  0.00  0.00    +0.080 C 
ATOM      6  C   UNL     1      19.943 -34.426 -18.032  0.00  0.00    +0.163 C 
ATOM      7  O   UNL     1      19.628 -33.561 -17.215  0.00  0.00    -0.292 OA
ATOM      8  C   UNL     1      19.777 -34.180 -19.488  0.00  0.00    +0.021 A 
ATOM      9  C   UNL     1      19.216 -32.963 -19.906  0.00  0.00    +0.011 A 
ATOM     10  C   UNL     1      19.053 -32.690 -21.263  0.00  0.00    +0.001 A 
ATOM     11  C   UNL     1      19.447 -33.633 -22.208  0.00  0.00    +0.000 A 
ENDROOT
BRANCH   3  12
ATOM     12  C   UNL     1      19.820 -37.620 -20.235  0.00  0.00    +0.049 C 
ATOM     13  O   UNL     1      18.610 -37.382 -19.964  0.00  0.00    -0.549 OA
ATOM     14  O   UNL     1      20.349 -38.703 -20.624  0.00  0.00    -0.549 OA
ENDBRANCH   3  12
TORSDOF 1
ENDMDL
MODEL 7
REMARK VINA RESULT:    -5.115      2.690      4.737
REMARK INTER + INTRA:          -5.502
REMARK INTER:                  -5.383
REMARK INTRA:                  -0.119
REMARK UNBOUND:                -0.088
REMARK  Name = 
REMARK  1 active torsions:
REMARK  status: ('A' for Active; 'I' for Inactive)
REMARK    1  A    between atoms: C_10  and  C_12
REMARK                            x       y       z     vdW  Elec       q    Type
REMARK                         _______ _______ _______ _____ _____    ______ ____
ROOT
ATOM      1  C   UNL     1      21.300 -36.260 -19.905  0.00  0.00    +0.005 A 
ATOM      2  C   UNL     1      20.429 -35.193 -20.183  0.00  0.00    -0.028 A 
ATOM      3  C   UNL     1      19.712 -34.500 -19.041  0.00  0.00    +0.066 C 
ATOM      4  C   UNL     1      19.274 -33.088 -19.436  0.00  0.00    +0.022 C 
ATOM      5  C   UNL     1      18.548 -33.034 -20.772  0.00  0.00    +0.080 C 
ATOM      6  C   UNL     1      19.347 -33.680 -21.876  0.00  0.00    +0.163 C 
ATOM      7  O   UNL     1      19.242 -33.315 -23.046  0.00  0.00    -0.292 OA
ATOM      8  C   UNL     1      20.254 -34.803 -21.519  0.00  0.00    +0.021 A 
ATOM      9  C   UNL     1      20.948 -35.461 -22.546  0.00  0.00    +0.011 A 
ATOM     10  C   UNL     1      21.815 -36.511 -22.250  0.00  0.00    +0.001 A 
ATOM     11  C   UNL     1      21.988 -36.913 -20.929  0.00  0.00    +0.000 A 
ENDROOT
BRANCH   3  12
ATOM     12  C   UNL     1      18.582 -35.392 -18.477  0.00  0.00    +0.049 C 
ATOM     13  O   UNL     1      17.891 -36.024 -19.324  0.00  0.00    -0.549 OA
ATOM     14  O   UNL     1      18.457 -35.356 -17.216  0.00  0.00    -0.549 OA
ENDBRANCH   3  12
TORSDOF 1
ENDMDL
MODEL 8
REMARK VINA RESULT:    -5.069      1.347      3.574
REMARK INTER + INTRA:          -5.453
REMARK INTER:                  -5.362
REMARK INTRA:                  -0.092
REMARK UNBOUND:                -0.088
REMARK  Name = 
REMARK  1 active torsions:
REMARK  status: ('A' for Active; 'I' for Inactive)
REMARK    1  A    between atoms: C_10  and  C_12
REMARK                            x       y       z     vdW  Elec       q    Type
REMARK                         _______ _______ _______ _____ _____    ______ ____
ROOT
ATOM      1  C   UNL     1      19.592 -35.622 -20.978  0.00  0.00    +0.005 A 
ATOM      2  C   UNL     1      19.931 -35.283 -22.299  0.00  0.00    -0.028 A 
ATOM      3  C   UNL     1      20.332 -36.378 -23.268  0.00  0.00    +0.066 C 
ATOM      4  C   UNL     1      20.130 -35.936 -24.719  0.00  0.00    +0.022 C 
ATOM      5  C   UNL     1      20.722 -34.568 -25.021  0.00  0.00    +0.080 C 
ATOM      6  C   UNL     1      20.226 -33.514 -24.061  0.00  0.00    +0.163 C 
ATOM      7  O   UNL     1      20.130 -32.333 -24.395  0.00  0.00    -0.292 OA
ATOM      8  C   UNL     1      19.882 -33.934 -22.677  0.00  0.00    +0.021 A 
ATOM      9  C   UNL     1      19.490 -32.953 -21.754  0.00  0.00    +0.011 A 
ATOM     10  C   UNL     1      19.149 -33.308 -20.450  0.00  0.00    +0.001 A 
ATOM     11  C   UNL     1      19.204 -34.643 -20.061  0.00  0.00    +0.000 A 
ENDROOT
BRANCH   3  12
ATOM     12  C   UNL     1      21.749 -36.906 -22.946  0.00  0.00    +0.049 C 
ATOM     13  O   UNL     1      21.915 -38.155 -23.031  0.00  0.00    -0.549 OA
ATOM     14  O   UNL     1      22.580 -36.016 -22.595  0.00  0.00    -0.549 OA
ENDBRANCH   3  12
TORSDOF 1
ENDMDL
MODEL 9
REMARK VINA RESULT:    -5.068      2.978      3.853
REMARK INTER + INTRA:          -5.453
REMARK INTER:                  -5.364
REMARK INTRA:                  -0.088
REMARK UNBOUND:                -0.088
REMARK  Name = 
REMARK  1 active torsions:
REMARK  status: ('A' for Active; 'I' for Inactive)
REMARK    1  A    between atoms: C_10  and  C_12
REMARK                            x       y       z     vdW  Elec       q    Type
REMARK                         _______ _______ _______ _____ _____    ______ ____
ROOT
ATOM      1  C   UNL     1      18.610 -34.514 -24.440  0.00  0.00    +0.005 A 
ATOM      2  C   UNL     1      19.783 -35.273 -24.591  0.00  0.00    -0.028 A 
ATOM      3  C   UNL     1      19.683 -36.783 -24.697  0.00  0.00    +0.066 C 
ATOM      4  C   UNL     1      20.917 -37.373 -25.383  0.00  0.00    +0.022 C 
ATOM      5  C   UNL     1      22.230 -36.858 -24.812  0.00  0.00    +0.080 C 
ATOM      6  C   UNL     1      22.287 -35.350 -24.800  0.00  0.00    +0.163 C 
ATOM      7  O   UNL     1      23.355 -34.746 -24.894  0.00  0.00    -0.292 OA
ATOM      8  C   UNL     1      21.013 -34.602 -24.640  0.00  0.00    +0.021 A 
ATOM      9  C   UNL     1      21.060 -33.202 -24.554  0.00  0.00    +0.011 A 
ATOM     10  C   UNL     1      19.886 -32.464 -24.414  0.00  0.00    +0.001 A 
ATOM     11  C   UNL     1      18.660 -33.122 -24.354  0.00  0.00    +0.000 A 
ENDROOT
BRANCH   3  12
ATOM     12  C   UNL     1      19.347 -37.410 -23.324  0.00  0.00    +0.049 C 
ATOM     13  O   UNL     1      18.548 -38.388 -23.335  0.00  0.00    -0.549 OA
ATOM     14  O   UNL     1      19.891 -36.840 -22.332  0.00  0.00    -0.549 OA
ENDBRANCH   3  12
TORSDOF 1
ENDMDL
