
  MJ192500                      

 12 12  0  0  0  0  0  0  0  0999 V2000
   -3.8839    1.0259    0.0000 C   0  0  0  0  0  0  0  0  0  0  0  0
   -4.5983    0.6134    0.0000 C   0  0  0  0  0  0  0  0  0  0  0  0
   -4.5983   -0.2116    0.0000 C   0  0  0  0  0  0  0  0  0  0  0  0
   -3.8839   -0.6241    0.0000 C   0  0  0  0  0  0  0  0  0  0  0  0
   -3.1694   -0.2116    0.0000 C   0  0  0  0  0  0  0  0  0  0  0  0
   -3.1694    0.6134    0.0000 C   0  0  0  0  0  0  0  0  0  0  0  0
   -3.8840   -1.4491    0.0000 F   0  0  0  0  0  0  0  0  0  0  0  0
   -2.4550   -0.6241    0.0000 C   0  0  0  0  0  0  0  0  0  0  0  0
   -1.7405   -0.2116    0.0000 C   0  0  0  0  0  0  0  0  0  0  0  0
   -1.0260   -0.6241    0.0000 O   0  0  0  0  0  0  0  0  0  0  0  0
   -2.4550   -1.4491    0.0000 N   0  0  0  0  0  0  0  0  0  0  0  0
   -1.7405    0.6133    0.0000 O   0  0  0  0  0  0  0  0  0  0  0  0
  1  2  2  0  0  0  0
  2  3  1  0  0  0  0
  3  4  2  0  0  0  0
  4  5  1  0  0  0  0
  5  6  2  0  0  0  0
  6  1  1  0  0  0  0
  4  7  1  0  0  0  0
  5  8  1  0  0  0  0
  8  9  1  0  0  0  0
  9 10  1  0  0  0  0
  9 12  2  0  0  0  0
  8 11  1  0  0  0  0
M  END
