MODEL 1
REMARK VINA RESULT:    -5.036      0.000      0.000
REMARK INTER + INTRA:          -5.958
REMARK INTER:                  -5.774
REMARK INTRA:                  -0.184
REMARK UNBOUND:                -0.186
REMARK  Name = 
REMARK  3 active torsions:
REMARK  status: ('A' for Active; 'I' for Inactive)
REMARK    1  A    between atoms: C_5  and  CA_8
REMARK    2  A    between atoms: CA_8  and  C_9
REMARK    3  A    between atoms: CA_8  and  N_11
REMARK                            x       y       z     vdW  Elec       q    Type
REMARK                         _______ _______ _______ _____ _____    ______ ____
ROOT
ATOM      1  CA  UNL     1      19.687 -33.877 -18.420  0.00  0.00    +0.141 C 
ENDROOT
BRANCH   1   4
ATOM      2  C   UNL     1      20.214 -35.643 -21.768  0.00  0.00    +0.001 A 
ATOM      3  C   UNL     1      20.151 -35.379 -20.396  0.00  0.00    +0.012 A 
ATOM      4  C   UNL     1      19.757 -34.117 -19.913  0.00  0.00    +0.041 A 
ATOM      5  C   UNL     1      19.420 -33.147 -20.864  0.00  0.00    +0.132 A 
ATOM      6  F   UNL     1      18.998 -31.936 -20.467  0.00  0.00    -0.205 F 
ATOM      7  C   UNL     1      19.476 -33.401 -22.233  0.00  0.00    +0.039 A 
ATOM      8  C   UNL     1      19.878 -34.654 -22.688  0.00  0.00    +0.003 A 
ENDBRANCH   1   4
BRANCH   1   9
ATOM      9  N   UNL     1      20.574 -34.783 -17.581  0.00  0.00    +0.228 N 
ATOM     10  H1  UNL     1      20.075 -35.465 -17.009  0.00  0.00    +0.200 HD
ATOM     11  H2  UNL     1      21.351 -35.164 -18.117  0.00  0.00    +0.200 HD
ATOM     12  H3  UNL     1      21.011 -34.069 -16.943  0.00  0.00    +0.200 HD
ENDBRANCH   1   9
BRANCH   1  13
ATOM     13  C   UNL     1      18.223 -34.047 -17.879  0.00  0.00    +0.094 C 
ATOM     14  OXT UNL     1      18.136 -35.148 -17.235  0.00  0.00    -0.544 OA
ATOM     15  O   UNL     1      17.428 -33.092 -18.021  0.00  0.00    -0.544 OA
ENDBRANCH   1  13
TORSDOF 3
ENDMDL
MODEL 2
REMARK VINA RESULT:    -4.857      1.486      2.187
REMARK INTER + INTRA:          -5.753
REMARK INTER:                  -5.676
REMARK INTRA:                  -0.077
REMARK UNBOUND:                -0.186
REMARK  Name = 
REMARK  3 active torsions:
REMARK  status: ('A' for Active; 'I' for Inactive)
REMARK    1  A    between atoms: C_5  and  CA_8
REMARK    2  A    between atoms: CA_8  and  C_9
REMARK    3  A    between atoms: CA_8  and  N_11
REMARK                            x       y       z     vdW  Elec       q    Type
REMARK                         _______ _______ _______ _____ _____    ______ ____
ROOT
ATOM      1  CA  UNL     1      19.223 -33.115 -18.809  0.00  0.00    +0.141 C 
ENDROOT
BRANCH   1   4
ATOM      2  C   UNL     1      19.804 -33.880 -22.508  0.00  0.00    +0.001 A 
ATOM      3  C   UNL     1      19.445 -33.233 -21.322  0.00  0.00    +0.012 A 
ATOM      4  C   UNL     1      19.610 -33.856 -20.071  0.00  0.00    +0.041 A 
ATOM      5  C   UNL     1      20.162 -35.143 -20.067  0.00  0.00    +0.132 A 
ATOM      6  F   UNL     1      20.382 -35.775 -18.904  0.00  0.00    -0.205 F 
ATOM      7  C   UNL     1      20.527 -35.795 -21.244  0.00  0.00    +0.039 A 
ATOM      8  C   UNL     1      20.344 -35.163 -22.470  0.00  0.00    +0.003 A 
ENDBRANCH   1   4
BRANCH   1   9
ATOM      9  N   UNL     1      20.256 -33.159 -17.695  0.00  0.00    +0.228 N 
ATOM     10  H1  UNL     1      21.215 -32.967 -17.987  0.00  0.00    +0.200 HD
ATOM     11  H2  UNL     1      19.953 -32.647 -16.868  0.00  0.00    +0.200 HD
ATOM     12  H3  UNL     1      20.187 -34.173 -17.423  0.00  0.00    +0.200 HD
ENDBRANCH   1   9
BRANCH   1  13
ATOM     13  C   UNL     1      17.882 -33.667 -18.206  0.00  0.00    +0.094 C 
ATOM     14  OXT UNL     1      16.898 -33.230 -18.894  0.00  0.00    -0.544 OA
ATOM     15  O   UNL     1      17.954 -34.510 -17.285  0.00  0.00    -0.544 OA
ENDBRANCH   1  13
TORSDOF 3
ENDMDL
MODEL 3
REMARK VINA RESULT:    -4.458      3.955      5.008
REMARK INTER + INTRA:          -5.296
REMARK INTER:                  -5.113
REMARK INTRA:                  -0.183
REMARK UNBOUND:                -0.186
REMARK  Name = 
REMARK  3 active torsions:
REMARK  status: ('A' for Active; 'I' for Inactive)
REMARK    1  A    between atoms: C_5  and  CA_8
REMARK    2  A    between atoms: CA_8  and  C_9
REMARK    3  A    between atoms: CA_8  and  N_11
REMARK                            x       y       z     vdW  Elec       q    Type
REMARK                         _______ _______ _______ _____ _____    ______ ____
ROOT
ATOM      1  CA  UNL     1      19.603 -34.551 -23.928  0.00  0.00    +0.141 C 
ENDROOT
BRANCH   1   4
ATOM      2  C   UNL     1      20.919 -36.124 -20.703  0.00  0.00    +0.001 A 
ATOM      3  C   UNL     1      20.646 -35.883 -22.052  0.00  0.00    +0.012 A 
ATOM      4  C   UNL     1      19.862 -34.785 -22.455  0.00  0.00    +0.041 A 
ATOM      5  C   UNL     1      19.383 -33.940 -21.447  0.00  0.00    +0.132 A 
ATOM      6  F   UNL     1      18.664 -32.854 -21.768  0.00  0.00    -0.205 F 
ATOM      7  C   UNL     1      19.652 -34.170 -20.098  0.00  0.00    +0.039 A 
ATOM      8  C   UNL     1      20.421 -35.269 -19.724  0.00  0.00    +0.003 A 
ENDBRANCH   1   4
BRANCH   1   9
ATOM      9  N   UNL     1      19.432 -35.814 -24.758  0.00  0.00    +0.228 N 
ATOM     10  H1  UNL     1      18.946 -35.684 -25.646  0.00  0.00    +0.200 HD
ATOM     11  H2  UNL     1      20.293 -36.354 -24.819  0.00  0.00    +0.200 HD
ATOM     12  H3  UNL     1      18.810 -36.370 -24.116  0.00  0.00    +0.200 HD
ENDBRANCH   1   9
BRANCH   1  13
ATOM     13  C   UNL     1      20.763 -33.726 -24.591  0.00  0.00    +0.094 C 
ATOM     14  OXT UNL     1      20.471 -32.482 -24.552  0.00  0.00    -0.544 OA
ATOM     15  O   UNL     1      21.804 -34.335 -24.922  0.00  0.00    -0.544 OA
ENDBRANCH   1  13
TORSDOF 3
ENDMDL
MODEL 4
REMARK VINA RESULT:    -4.450      1.686      2.214
REMARK INTER + INTRA:          -5.286
REMARK INTER:                  -5.096
REMARK INTRA:                  -0.190
REMARK UNBOUND:                -0.186
REMARK  Name = 
REMARK  3 active torsions:
REMARK  status: ('A' for Active; 'I' for Inactive)
REMARK    1  A    between atoms: C_5  and  CA_8
REMARK    2  A    between atoms: CA_8  and  C_9
REMARK    3  A    between atoms: CA_8  and  N_11
REMARK                            x       y       z     vdW  Elec       q    Type
REMARK                         _______ _______ _______ _____ _____    ______ ____
ROOT
ATOM      1  CA  UNL     1      20.431 -35.314 -17.975  0.00  0.00    +0.141 C 
ENDROOT
BRANCH   1   4
ATOM      2  C   UNL     1      19.945 -34.526 -21.683  0.00  0.00    +0.001 A 
ATOM      3  C   UNL     1      20.340 -35.145 -20.493  0.00  0.00    +0.012 A 
ATOM      4  C   UNL     1      19.996 -34.604 -19.239  0.00  0.00    +0.041 A 
ATOM      5  C   UNL     1      19.232 -33.432 -19.238  0.00  0.00    +0.132 A 
ATOM      6  F   UNL     1      18.838 -32.888 -18.076  0.00  0.00    -0.205 F 
ATOM      7  C   UNL     1      18.830 -32.809 -20.419  0.00  0.00    +0.039 A 
ATOM      8  C   UNL     1      19.191 -33.357 -21.647  0.00  0.00    +0.003 A 
ENDBRANCH   1   4
BRANCH   1   9
ATOM      9  N   UNL     1      21.825 -35.919 -18.024  0.00  0.00    +0.228 N 
ATOM     10  H1  UNL     1      21.852 -36.930 -18.157  0.00  0.00    +0.200 HD
ATOM     11  H2  UNL     1      22.452 -35.393 -18.630  0.00  0.00    +0.200 HD
ATOM     12  H3  UNL     1      22.152 -35.702 -17.047  0.00  0.00    +0.200 HD
ENDBRANCH   1   9
BRANCH   1  13
ATOM     13  C   UNL     1      19.444 -36.477 -17.601  0.00  0.00    +0.094 C 
ATOM     14  OXT UNL     1      18.422 -35.990 -17.007  0.00  0.00    -0.544 OA
ATOM     15  O   UNL     1      19.703 -37.626 -18.023  0.00  0.00    -0.544 OA
ENDBRANCH   1  13
TORSDOF 3
ENDMDL
MODEL 5
REMARK VINA RESULT:    -4.320      5.299      6.345
REMARK INTER + INTRA:          -5.138
REMARK INTER:                  -4.979
REMARK INTRA:                  -0.159
REMARK UNBOUND:                -0.186
REMARK  Name = 
REMARK  3 active torsions:
REMARK  status: ('A' for Active; 'I' for Inactive)
REMARK    1  A    between atoms: C_5  and  CA_8
REMARK    2  A    between atoms: CA_8  and  C_9
REMARK    3  A    between atoms: CA_8  and  N_11
REMARK                            x       y       z     vdW  Elec       q    Type
REMARK                         _______ _______ _______ _____ _____    ______ ____
ROOT
ATOM      1  CA  UNL     1      21.006 -35.631 -25.732  0.00  0.00    +0.141 C 
ENDROOT
BRANCH   1   4
ATOM      2  C   UNL     1      20.007 -35.396 -22.051  0.00  0.00    +0.001 A 
ATOM      3  C   UNL     1      20.470 -35.882 -23.277  0.00  0.00    +0.012 A 
ATOM      4  C   UNL     1      20.483 -35.070 -24.427  0.00  0.00    +0.041 A 
ATOM      5  C   UNL     1      20.028 -33.754 -24.284  0.00  0.00    +0.132 A 
ATOM      6  F   UNL     1      20.053 -32.918 -25.333  0.00  0.00    -0.205 F 
ATOM      7  C   UNL     1      19.568 -33.259 -23.064  0.00  0.00    +0.039 A 
ATOM      8  C   UNL     1      19.555 -34.084 -21.943  0.00  0.00    +0.003 A 
ENDBRANCH   1   4
BRANCH   1   9
ATOM      9  N   UNL     1      20.089 -36.635 -26.413  0.00  0.00    +0.228 N 
ATOM     10  H1  UNL     1      19.870 -36.428 -27.388  0.00  0.00    +0.200 HD
ATOM     11  H2  UNL     1      20.372 -37.597 -26.235  0.00  0.00    +0.200 HD
ATOM     12  H3  UNL     1      19.216 -36.502 -25.840  0.00  0.00    +0.200 HD
ENDBRANCH   1   9
BRANCH   1  13
ATOM     13  C   UNL     1      22.392 -36.342 -25.537  0.00  0.00    +0.094 C 
ATOM     14  OXT UNL     1      22.268 -37.588 -25.795  0.00  0.00    -0.544 OA
ATOM     15  O   UNL     1      23.393 -35.627 -25.305  0.00  0.00    -0.544 OA
ENDBRANCH   1  13
TORSDOF 3
ENDMDL
MODEL 6
REMARK VINA RESULT:    -4.316      5.603      6.799
REMARK INTER + INTRA:          -5.133
REMARK INTER:                  -4.999
REMARK INTRA:                  -0.135
REMARK UNBOUND:                -0.186
REMARK  Name = 
REMARK  3 active torsions:
REMARK  status: ('A' for Active; 'I' for Inactive)
REMARK    1  A    between atoms: C_5  and  CA_8
REMARK    2  A    between atoms: CA_8  and  C_9
REMARK    3  A    between atoms: CA_8  and  N_11
REMARK                            x       y       z     vdW  Elec       q    Type
REMARK                         _______ _______ _______ _____ _____    ______ ____
ROOT
ATOM      1  CA  UNL     1      21.062 -35.857 -26.072  0.00  0.00    +0.141 C 
ENDROOT
BRANCH   1   4
ATOM      2  C   UNL     1      20.049 -32.908 -23.863  0.00  0.00    +0.001 A 
ATOM      3  C   UNL     1      20.491 -33.668 -24.949  0.00  0.00    +0.012 A 
ATOM      4  C   UNL     1      20.593 -35.070 -24.867  0.00  0.00    +0.041 A 
ATOM      5  C   UNL     1      20.219 -35.666 -23.658  0.00  0.00    +0.132 A 
ATOM      6  F   UNL     1      20.255 -37.002 -23.528  0.00  0.00    -0.205 F 
ATOM      7  C   UNL     1      19.773 -34.917 -22.569  0.00  0.00    +0.039 A 
ATOM      8  C   UNL     1      19.691 -33.532 -22.671  0.00  0.00    +0.003 A 
ENDBRANCH   1   4
BRANCH   1   9
ATOM      9  N   UNL     1      20.064 -36.874 -26.603  0.00  0.00    +0.228 N 
ATOM     10  H1  UNL     1      20.079 -37.780 -26.134  0.00  0.00    +0.200 HD
ATOM     11  H2  UNL     1      19.135 -36.474 -26.726  0.00  0.00    +0.200 HD
ATOM     12  H3  UNL     1      20.434 -36.999 -27.580  0.00  0.00    +0.200 HD
ENDBRANCH   1   9
BRANCH   1  13
ATOM     13  C   UNL     1      22.388 -36.640 -25.766  0.00  0.00    +0.094 C 
ATOM     14  OXT UNL     1      22.244 -37.864 -26.105  0.00  0.00    -0.544 OA
ATOM     15  O   UNL     1      23.384 -35.985 -25.386  0.00  0.00    -0.544 OA
ENDBRANCH   1  13
TORSDOF 3
ENDMDL
MODEL 7
REMARK VINA RESULT:    -4.240      7.864      9.104
REMARK INTER + INTRA:          -5.046
REMARK INTER:                  -4.860
REMARK INTRA:                  -0.186
REMARK UNBOUND:                -0.186
REMARK  Name = 
REMARK  3 active torsions:
REMARK  status: ('A' for Active; 'I' for Inactive)
REMARK    1  A    between atoms: C_5  and  CA_8
REMARK    2  A    between atoms: CA_8  and  C_9
REMARK    3  A    between atoms: CA_8  and  N_11
REMARK                            x       y       z     vdW  Elec       q    Type
REMARK                         _______ _______ _______ _____ _____    ______ ____
ROOT
ATOM      1  CA  UNL     1      19.647 -39.361 -27.714  0.00  0.00    +0.141 C 
ENDROOT
BRANCH   1   4
ATOM      2  C   UNL     1      18.721 -38.895 -24.036  0.00  0.00    +0.001 A 
ATOM      3  C   UNL     1      18.871 -39.445 -25.312  0.00  0.00    +0.012 A 
ATOM      4  C   UNL     1      19.490 -38.723 -26.350  0.00  0.00    +0.041 A 
ATOM      5  C   UNL     1      19.960 -37.441 -26.043  0.00  0.00    +0.132 A 
ATOM      6  F   UNL     1      20.596 -36.718 -26.978  0.00  0.00    -0.205 F 
ATOM      7  C   UNL     1      19.819 -36.886 -24.773  0.00  0.00    +0.039 A 
ATOM      8  C   UNL     1      19.193 -37.614 -23.765  0.00  0.00    +0.003 A 
ENDBRANCH   1   4
BRANCH   1   9
ATOM      9  N   UNL     1      18.402 -40.054 -28.246  0.00  0.00    +0.228 N 
ATOM     10  H1  UNL     1      17.924 -40.657 -27.577  0.00  0.00    +0.200 HD
ATOM     11  H2  UNL     1      17.794 -39.415 -28.755  0.00  0.00    +0.200 HD
ATOM     12  H3  UNL     1      18.836 -40.661 -28.989  0.00  0.00    +0.200 HD
ENDBRANCH   1   9
BRANCH   1  13
ATOM     13  C   UNL     1      20.798 -40.429 -27.720  0.00  0.00    +0.094 C 
ATOM     14  OXT UNL     1      20.301 -41.584 -27.949  0.00  0.00    -0.544 OA
ATOM     15  O   UNL     1      21.979 -40.022 -27.643  0.00  0.00    -0.544 OA
ENDBRANCH   1  13
TORSDOF 3
ENDMDL
MODEL 8
REMARK VINA RESULT:    -4.194      5.046      6.201
REMARK INTER + INTRA:          -4.993
REMARK INTER:                  -4.793
REMARK INTRA:                  -0.201
REMARK UNBOUND:                -0.186
REMARK  Name = 
REMARK  3 active torsions:
REMARK  status: ('A' for Active; 'I' for Inactive)
REMARK    1  A    between atoms: C_5  and  CA_8
REMARK    2  A    between atoms: CA_8  and  C_9
REMARK    3  A    between atoms: CA_8  and  N_11
REMARK                            x       y       z     vdW  Elec       q    Type
REMARK                         _______ _______ _______ _____ _____    ______ ____
ROOT
ATOM      1  CA  UNL     1      21.053 -36.853 -24.643  0.00  0.00    +0.141 C 
ENDROOT
BRANCH   1   4
ATOM      2  C   UNL     1      20.478 -33.075 -24.609  0.00  0.00    +0.001 A 
ATOM      3  C   UNL     1      20.873 -34.359 -24.996  0.00  0.00    +0.012 A 
ATOM      4  C   UNL     1      20.622 -35.477 -24.179  0.00  0.00    +0.041 A 
ATOM      5  C   UNL     1      19.949 -35.249 -22.974  0.00  0.00    +0.132 A 
ATOM      6  F   UNL     1      19.645 -36.279 -22.169  0.00  0.00    -0.205 F 
ATOM      7  C   UNL     1      19.548 -33.973 -22.580  0.00  0.00    +0.039 A 
ATOM      8  C   UNL     1      19.817 -32.880 -23.400  0.00  0.00    +0.003 A 
ENDBRANCH   1   4
BRANCH   1   9
ATOM      9  N   UNL     1      22.315 -36.879 -25.490  0.00  0.00    +0.228 N 
ATOM     10  H1  UNL     1      22.161 -36.829 -26.497  0.00  0.00    +0.200 HD
ATOM     11  H2  UNL     1      23.029 -36.245 -25.137  0.00  0.00    +0.200 HD
ATOM     12  H3  UNL     1      22.671 -37.842 -25.255  0.00  0.00    +0.200 HD
ENDBRANCH   1   9
BRANCH   1  13
ATOM     13  C   UNL     1      19.927 -37.554 -25.484  0.00  0.00    +0.094 C 
ATOM     14  OXT UNL     1      20.192 -37.432 -26.728  0.00  0.00    -0.544 OA
ATOM     15  O   UNL     1      19.055 -38.209 -24.870  0.00  0.00    -0.544 OA
ENDBRANCH   1  13
TORSDOF 3
ENDMDL
MODEL 9
REMARK VINA RESULT:    -4.178      4.991      6.065
REMARK INTER + INTRA:          -4.975
REMARK INTER:                  -4.836
REMARK INTRA:                  -0.139
REMARK UNBOUND:                -0.186
REMARK  Name = 
REMARK  3 active torsions:
REMARK  status: ('A' for Active; 'I' for Inactive)
REMARK    1  A    between atoms: C_5  and  CA_8
REMARK    2  A    between atoms: CA_8  and  C_9
REMARK    3  A    between atoms: CA_8  and  N_11
REMARK                            x       y       z     vdW  Elec       q    Type
REMARK                         _______ _______ _______ _____ _____    ______ ____
ROOT
ATOM      1  CA  UNL     1      19.877 -34.808 -24.616  0.00  0.00    +0.141 C 
ENDROOT
BRANCH   1   4
ATOM      2  C   UNL     1      23.648 -35.025 -25.193  0.00  0.00    +0.001 A 
ATOM      3  C   UNL     1      22.398 -34.669 -24.679  0.00  0.00    +0.012 A 
ATOM      4  C   UNL     1      21.210 -35.207 -25.211  0.00  0.00    +0.041 A 
ATOM      5  C   UNL     1      21.339 -36.122 -26.262  0.00  0.00    +0.132 A 
ATOM      6  F   UNL     1      20.247 -36.701 -26.786  0.00  0.00    -0.205 F 
ATOM      7  C   UNL     1      22.582 -36.486 -26.779  0.00  0.00    +0.039 A 
ATOM      8  C   UNL     1      23.742 -35.932 -26.244  0.00  0.00    +0.003 A 
ENDBRANCH   1   4
BRANCH   1   9
ATOM      9  N   UNL     1      19.437 -33.385 -24.923  0.00  0.00    +0.228 N 
ATOM     10  H1  UNL     1      20.181 -32.760 -25.235  0.00  0.00    +0.200 HD
ATOM     11  H2  UNL     1      18.592 -33.357 -25.491  0.00  0.00    +0.200 HD
ATOM     12  H3  UNL     1      19.125 -33.080 -23.965  0.00  0.00    +0.200 HD
ENDBRANCH   1   9
BRANCH   1  13
ATOM     13  C   UNL     1      19.878 -34.955 -23.053  0.00  0.00    +0.094 C 
ATOM     14  OXT UNL     1      19.990 -36.190 -22.745  0.00  0.00    -0.544 OA
ATOM     15  O   UNL     1      19.905 -33.911 -22.363  0.00  0.00    -0.544 OA
ENDBRANCH   1  13
TORSDOF 3
ENDMDL
