MODEL 1
REMARK VINA RESULT:    -4.959      0.000      0.000
REMARK INTER + INTRA:          -5.990
REMARK INTER:                  -5.745
REMARK INTRA:                  -0.245
REMARK UNBOUND:                -0.161
REMARK  Name = 
REMARK  3 active torsions:
REMARK  status: ('A' for Active; 'I' for Inactive)
REMARK    1  A    between atoms: C_4  and  C_7
REMARK    2  A    between atoms: N_9  and  C_10
REMARK    3  A    between atoms: C_10  and  C_11
REMARK                            x       y       z     vdW  Elec       q    Type
REMARK                         _______ _______ _______ _____ _____    ______ ____
ROOT
ATOM      1  C   UNL     1      19.060 -33.297 -20.843  0.00  0.00    +0.246 C 
ATOM      2  O   UNL     1      19.437 -32.202 -20.439  0.00  0.00    -0.270 OA
ATOM      3  N   UNL     1      18.113 -34.061 -20.222  0.00  0.00    -0.306 N 
ATOM      4  H   UNL     1      17.901 -35.022 -20.484  0.00  0.00    +0.149 HD
ENDROOT
BRANCH   1   8
ATOM      5  C   UNL     1      20.809 -35.114 -24.229  0.00  0.00    +0.111 A 
ATOM      6  N   UNL     1      20.706 -35.821 -23.083  0.00  0.00    -0.263 NA
ATOM      7  C   UNL     1      20.137 -35.180 -22.027  0.00  0.00    +0.123 A 
ATOM      8  C   UNL     1      19.663 -33.874 -22.069  0.00  0.00    +0.055 A 
ATOM      9  C   UNL     1      19.801 -33.171 -23.269  0.00  0.00    +0.016 A 
ATOM     10  C   UNL     1      20.381 -33.803 -24.369  0.00  0.00    +0.020 A 
ENDBRANCH   1   8
BRANCH   3  11
ATOM     11  C   UNL     1      17.444 -33.708 -18.965  0.00  0.00    +0.156 C 
BRANCH  11  12
ATOM     12  C   UNL     1      18.271 -34.138 -17.723  0.00  0.00    +0.059 C 
ATOM     13  O   UNL     1      19.038 -33.262 -17.240  0.00  0.00    -0.548 OA
ATOM     14  O   UNL     1      18.062 -35.338 -17.353  0.00  0.00    -0.548 OA
ENDBRANCH  11  12
ENDBRANCH   3  11
TORSDOF 3
ENDMDL
MODEL 2
REMARK VINA RESULT:    -4.884      1.296      1.296
REMARK INTER + INTRA:          -5.902
REMARK INTER:                  -5.790
REMARK INTRA:                  -0.112
REMARK UNBOUND:                -0.161
REMARK  Name = 
REMARK  3 active torsions:
REMARK  status: ('A' for Active; 'I' for Inactive)
REMARK    1  A    between atoms: C_4  and  C_7
REMARK    2  A    between atoms: N_9  and  C_10
REMARK    3  A    between atoms: C_10  and  C_11
REMARK                            x       y       z     vdW  Elec       q    Type
REMARK                         _______ _______ _______ _____ _____    ______ ____
ROOT
ATOM      1  C   UNL     1      19.229 -34.365 -21.035  0.00  0.00    +0.246 C 
ATOM      2  O   UNL     1      18.934 -35.470 -20.591  0.00  0.00    -0.270 OA
ATOM      3  N   UNL     1      18.921 -33.183 -20.425  0.00  0.00    -0.306 N 
ATOM      4  H   UNL     1      19.047 -32.272 -20.860  0.00  0.00    +0.149 HD
ENDROOT
BRANCH   1   8
ATOM      5  C   UNL     1      21.372 -34.244 -24.671  0.00  0.00    +0.111 A 
ATOM      6  N   UNL     1      21.627 -35.235 -23.791  0.00  0.00    -0.263 NA
ATOM      7  C   UNL     1      20.908 -35.219 -22.637  0.00  0.00    +0.123 A 
ATOM      8  C   UNL     1      19.945 -34.263 -22.330  0.00  0.00    +0.055 A 
ATOM      9  C   UNL     1      19.721 -33.246 -23.261  0.00  0.00    +0.016 A 
ATOM     10  C   UNL     1      20.444 -33.237 -24.453  0.00  0.00    +0.020 A 
ENDBRANCH   1   8
BRANCH   3  11
ATOM     11  C   UNL     1      18.159 -33.058 -19.177  0.00  0.00    +0.156 C 
BRANCH  11  12
ATOM     12  C   UNL     1      18.911 -33.682 -17.970  0.00  0.00    +0.059 C 
ATOM     13  O   UNL     1      20.079 -33.254 -17.766  0.00  0.00    -0.548 OA
ATOM     14  O   UNL     1      18.237 -34.557 -17.338  0.00  0.00    -0.548 OA
ENDBRANCH  11  12
ENDBRANCH   3  11
TORSDOF 3
ENDMDL
MODEL 3
REMARK VINA RESULT:    -4.346      6.785      8.650
REMARK INTER + INTRA:          -5.269
REMARK INTER:                  -5.057
REMARK INTRA:                  -0.212
REMARK UNBOUND:                -0.161
REMARK  Name = 
REMARK  3 active torsions:
REMARK  status: ('A' for Active; 'I' for Inactive)
REMARK    1  A    between atoms: C_4  and  C_7
REMARK    2  A    between atoms: N_9  and  C_10
REMARK    3  A    between atoms: C_10  and  C_11
REMARK                            x       y       z     vdW  Elec       q    Type
REMARK                         _______ _______ _______ _____ _____    ______ ____
ROOT
ATOM      1  C   UNL     1      25.375 -35.276 -26.088  0.00  0.00    +0.246 C 
ATOM      2  O   UNL     1      26.129 -36.214 -25.856  0.00  0.00    -0.270 OA
ATOM      3  N   UNL     1      25.790 -34.033 -26.476  0.00  0.00    -0.306 N 
ATOM      4  H   UNL     1      25.174 -33.225 -26.537  0.00  0.00    +0.149 HD
ENDROOT
BRANCH   1   8
ATOM      5  C   UNL     1      21.210 -35.900 -25.793  0.00  0.00    +0.111 A 
ATOM      6  N   UNL     1      21.890 -36.475 -26.807  0.00  0.00    -0.263 NA
ATOM      7  C   UNL     1      23.227 -36.234 -26.851  0.00  0.00    +0.123 A 
ATOM      8  C   UNL     1      23.911 -35.453 -25.926  0.00  0.00    +0.055 A 
ATOM      9  C   UNL     1      23.170 -34.864 -24.899  0.00  0.00    +0.016 A 
ATOM     10  C   UNL     1      21.796 -35.093 -24.829  0.00  0.00    +0.020 A 
ENDBRANCH   1   8
BRANCH   3  11
ATOM     11  C   UNL     1      27.191 -33.628 -26.629  0.00  0.00    +0.156 C 
BRANCH  11  12
ATOM     12  C   UNL     1      27.819 -33.180 -25.281  0.00  0.00    +0.059 C 
ATOM     13  O   UNL     1      27.116 -32.408 -24.575  0.00  0.00    -0.548 OA
ATOM     14  O   UNL     1      28.978 -33.661 -25.066  0.00  0.00    -0.548 OA
ENDBRANCH  11  12
ENDBRANCH   3  11
TORSDOF 3
ENDMDL
MODEL 4
REMARK VINA RESULT:    -4.234      4.788      7.310
REMARK INTER + INTRA:          -5.138
REMARK INTER:                  -4.993
REMARK INTRA:                  -0.145
REMARK UNBOUND:                -0.161
REMARK  Name = 
REMARK  3 active torsions:
REMARK  status: ('A' for Active; 'I' for Inactive)
REMARK    1  A    between atoms: C_4  and  C_7
REMARK    2  A    between atoms: N_9  and  C_10
REMARK    3  A    between atoms: C_10  and  C_11
REMARK                            x       y       z     vdW  Elec       q    Type
REMARK                         _______ _______ _______ _____ _____    ______ ____
ROOT
ATOM      1  C   UNL     1      22.654 -35.700 -24.534  0.00  0.00    +0.246 C 
ATOM      2  O   UNL     1      22.691 -36.887 -24.228  0.00  0.00    -0.270 OA
ATOM      3  N   UNL     1      23.608 -35.067 -25.279  0.00  0.00    -0.306 N 
ATOM      4  H   UNL     1      23.642 -34.059 -25.416  0.00  0.00    +0.149 HD
ENDROOT
BRANCH   1   8
ATOM      5  C   UNL     1      19.427 -33.427 -23.037  0.00  0.00    +0.111 A 
ATOM      6  N   UNL     1      19.821 -34.529 -22.365  0.00  0.00    -0.263 NA
ATOM      7  C   UNL     1      20.863 -35.221 -22.899  0.00  0.00    +0.123 A 
ATOM      8  C   UNL     1      21.528 -34.856 -24.064  0.00  0.00    +0.055 A 
ATOM      9  C   UNL     1      21.081 -33.717 -24.737  0.00  0.00    +0.016 A 
ATOM     10  C   UNL     1      20.014 -32.988 -24.214  0.00  0.00    +0.020 A 
ENDBRANCH   1   8
BRANCH   3  11
ATOM     11  C   UNL     1      24.833 -35.699 -25.783  0.00  0.00    +0.156 C 
BRANCH  11  12
ATOM     12  C   UNL     1      25.795 -34.668 -26.432  0.00  0.00    +0.059 C 
ATOM     13  O   UNL     1      25.807 -34.642 -27.693  0.00  0.00    -0.548 OA
ATOM     14  O   UNL     1      26.454 -33.976 -25.592  0.00  0.00    -0.548 OA
ENDBRANCH  11  12
ENDBRANCH   3  11
TORSDOF 3
ENDMDL
MODEL 5
REMARK VINA RESULT:    -4.203      4.721      7.040
REMARK INTER + INTRA:          -5.101
REMARK INTER:                  -4.891
REMARK INTRA:                  -0.210
REMARK UNBOUND:                -0.161
REMARK  Name = 
REMARK  3 active torsions:
REMARK  status: ('A' for Active; 'I' for Inactive)
REMARK    1  A    between atoms: C_4  and  C_7
REMARK    2  A    between atoms: N_9  and  C_10
REMARK    3  A    between atoms: C_10  and  C_11
REMARK                            x       y       z     vdW  Elec       q    Type
REMARK                         _______ _______ _______ _____ _____    ______ ____
ROOT
ATOM      1  C   UNL     1      22.319 -35.142 -25.183  0.00  0.00    +0.246 C 
ATOM      2  O   UNL     1      23.505 -34.897 -24.987  0.00  0.00    -0.270 OA
ATOM      3  N   UNL     1      21.855 -35.946 -26.184  0.00  0.00    -0.306 N 
ATOM      4  H   UNL     1      20.870 -36.038 -26.425  0.00  0.00    +0.149 HD
ENDROOT
BRANCH   1   8
ATOM      5  C   UNL     1      19.418 -33.529 -22.574  0.00  0.00    +0.111 A 
ATOM      6  N   UNL     1      20.058 -34.665 -22.223  0.00  0.00    -0.263 NA
ATOM      7  C   UNL     1      20.978 -35.137 -23.106  0.00  0.00    +0.123 A 
ATOM      8  C   UNL     1      21.289 -34.522 -24.313  0.00  0.00    +0.055 A 
ATOM      9  C   UNL     1      20.595 -33.356 -24.647  0.00  0.00    +0.016 A 
ATOM     10  C   UNL     1      19.645 -32.849 -23.761  0.00  0.00    +0.020 A 
ENDBRANCH   1   8
BRANCH   3  11
ATOM     11  C   UNL     1      22.697 -36.599 -27.192  0.00  0.00    +0.156 C 
BRANCH  11  12
ATOM     12  C   UNL     1      22.913 -38.106 -26.884  0.00  0.00    +0.059 C 
ATOM     13  O   UNL     1      21.978 -38.879 -27.226  0.00  0.00    -0.548 OA
ATOM     14  O   UNL     1      24.024 -38.363 -26.319  0.00  0.00    -0.548 OA
ENDBRANCH  11  12
ENDBRANCH   3  11
TORSDOF 3
ENDMDL
MODEL 6
REMARK VINA RESULT:    -4.196      2.758      5.539
REMARK INTER + INTRA:          -5.094
REMARK INTER:                  -4.946
REMARK INTRA:                  -0.147
REMARK UNBOUND:                -0.161
REMARK  Name = 
REMARK  3 active torsions:
REMARK  status: ('A' for Active; 'I' for Inactive)
REMARK    1  A    between atoms: C_4  and  C_7
REMARK    2  A    between atoms: N_9  and  C_10
REMARK    3  A    between atoms: C_10  and  C_11
REMARK                            x       y       z     vdW  Elec       q    Type
REMARK                         _______ _______ _______ _____ _____    ______ ____
ROOT
ATOM      1  C   UNL     1      20.440 -35.200 -21.192  0.00  0.00    +0.246 C 
ATOM      2  O   UNL     1      21.176 -35.934 -20.541  0.00  0.00    -0.270 OA
ATOM      3  N   UNL     1      20.539 -35.013 -22.541  0.00  0.00    -0.306 N 
ATOM      4  H   UNL     1      20.017 -34.305 -23.054  0.00  0.00    +0.149 HD
ENDROOT
BRANCH   1   8
ATOM      5  C   UNL     1      17.349 -33.178 -19.147  0.00  0.00    +0.111 A 
ATOM      6  N   UNL     1      17.462 -34.516 -19.009  0.00  0.00    -0.263 NA
ATOM      7  C   UNL     1      18.475 -35.111 -19.695  0.00  0.00    +0.123 A 
ATOM      8  C   UNL     1      19.378 -34.428 -20.502  0.00  0.00    +0.055 A 
ATOM      9  C   UNL     1      19.218 -33.046 -20.631  0.00  0.00    +0.016 A 
ATOM     10  C   UNL     1      18.188 -32.409 -19.939  0.00  0.00    +0.020 A 
ENDBRANCH   1   8
BRANCH   3  11
ATOM     11  C   UNL     1      21.559 -35.625 -23.400  0.00  0.00    +0.156 C 
BRANCH  11  12
ATOM     12  C   UNL     1      22.006 -34.674 -24.543  0.00  0.00    +0.059 C 
ATOM     13  O   UNL     1      23.184 -34.833 -24.964  0.00  0.00    -0.548 OA
ATOM     14  O   UNL     1      21.110 -33.848 -24.908  0.00  0.00    -0.548 OA
ENDBRANCH  11  12
ENDBRANCH   3  11
TORSDOF 3
ENDMDL
MODEL 7
REMARK VINA RESULT:    -4.076      4.236      4.963
REMARK INTER + INTRA:          -4.952
REMARK INTER:                  -4.740
REMARK INTRA:                  -0.212
REMARK UNBOUND:                -0.161
REMARK  Name = 
REMARK  3 active torsions:
REMARK  status: ('A' for Active; 'I' for Inactive)
REMARK    1  A    between atoms: C_4  and  C_7
REMARK    2  A    between atoms: N_9  and  C_10
REMARK    3  A    between atoms: C_10  and  C_11
REMARK                            x       y       z     vdW  Elec       q    Type
REMARK                         _______ _______ _______ _____ _____    ______ ____
ROOT
ATOM      1  C   UNL     1      20.961 -35.723 -18.904  0.00  0.00    +0.246 C 
ATOM      2  O   UNL     1      20.790 -35.462 -20.091  0.00  0.00    -0.270 OA
ATOM      3  N   UNL     1      20.001 -35.590 -17.942  0.00  0.00    -0.306 N 
ATOM      4  H   UNL     1      20.184 -35.678 -16.944  0.00  0.00    +0.149 HD
ENDROOT
BRANCH   1   8
ATOM      5  C   UNL     1      24.650 -37.144 -17.423  0.00  0.00    +0.111 A 
ATOM      6  N   UNL     1      23.519 -37.419 -16.741  0.00  0.00    -0.263 NA
ATOM      7  C   UNL     1      22.363 -36.932 -17.266  0.00  0.00    +0.123 A 
ATOM      8  C   UNL     1      22.290 -36.191 -18.440  0.00  0.00    +0.055 A 
ATOM      9  C   UNL     1      23.484 -35.915 -19.109  0.00  0.00    +0.016 A 
ATOM     10  C   UNL     1      24.686 -36.402 -18.594  0.00  0.00    +0.020 A 
ENDBRANCH   1   8
BRANCH   3  11
ATOM     11  C   UNL     1      18.645 -35.080 -18.175  0.00  0.00    +0.156 C 
BRANCH  11  12
ATOM     12  C   UNL     1      18.503 -33.592 -17.756  0.00  0.00    +0.059 C 
ATOM     13  O   UNL     1      17.540 -32.963 -18.272  0.00  0.00    -0.548 OA
ATOM     14  O   UNL     1      19.391 -33.199 -16.934  0.00  0.00    -0.548 OA
ENDBRANCH  11  12
ENDBRANCH   3  11
TORSDOF 3
ENDMDL
MODEL 8
REMARK VINA RESULT:    -4.030      3.060      4.699
REMARK INTER + INTRA:          -4.899
REMARK INTER:                  -4.763
REMARK INTRA:                  -0.135
REMARK UNBOUND:                -0.161
REMARK  Name = 
REMARK  3 active torsions:
REMARK  status: ('A' for Active; 'I' for Inactive)
REMARK    1  A    between atoms: C_4  and  C_7
REMARK    2  A    between atoms: N_9  and  C_10
REMARK    3  A    between atoms: C_10  and  C_11
REMARK                            x       y       z     vdW  Elec       q    Type
REMARK                         _______ _______ _______ _____ _____    ______ ____
ROOT
ATOM      1  C   UNL     1      17.684 -35.793 -18.168  0.00  0.00    +0.246 C 
ATOM      2  O   UNL     1      18.255 -35.953 -17.094  0.00  0.00    -0.270 OA
ATOM      3  N   UNL     1      16.598 -36.513 -18.576  0.00  0.00    -0.306 N 
ATOM      4  H   UNL     1      16.213 -36.470 -19.518  0.00  0.00    +0.149 HD
ENDROOT
BRANCH   1   8
ATOM      5  C   UNL     1      19.004 -32.765 -20.798  0.00  0.00    +0.111 A 
ATOM      6  N   UNL     1      18.081 -32.464 -19.860  0.00  0.00    -0.263 NA
ATOM      7  C   UNL     1      17.694 -33.481 -19.045  0.00  0.00    +0.123 A 
ATOM      8  C   UNL     1      18.191 -34.777 -19.123  0.00  0.00    +0.055 A 
ATOM      9  C   UNL     1      19.134 -35.052 -20.117  0.00  0.00    +0.016 A 
ATOM     10  C   UNL     1      19.550 -34.029 -20.967  0.00  0.00    +0.020 A 
ENDBRANCH   1   8
BRANCH   3  11
ATOM     11  C   UNL     1      15.984 -37.607 -17.816  0.00  0.00    +0.156 C 
BRANCH  11  12
ATOM     12  C   UNL     1      14.676 -38.115 -18.481  0.00  0.00    +0.059 C 
ATOM     13  O   UNL     1      14.754 -39.223 -19.077  0.00  0.00    -0.548 OA
ATOM     14  O   UNL     1      13.683 -37.333 -18.332  0.00  0.00    -0.548 OA
ENDBRANCH  11  12
ENDBRANCH   3  11
TORSDOF 3
ENDMDL
MODEL 9
REMARK VINA RESULT:    -3.947      1.867      2.329
REMARK INTER + INTRA:          -4.801
REMARK INTER:                  -4.640
REMARK INTRA:                  -0.161
REMARK UNBOUND:                -0.161
REMARK  Name = 
REMARK  3 active torsions:
REMARK  status: ('A' for Active; 'I' for Inactive)
REMARK    1  A    between atoms: C_4  and  C_7
REMARK    2  A    between atoms: N_9  and  C_10
REMARK    3  A    between atoms: C_10  and  C_11
REMARK                            x       y       z     vdW  Elec       q    Type
REMARK                         _______ _______ _______ _____ _____    ______ ____
ROOT
ATOM      1  C   UNL     1      20.123 -34.840 -21.648  0.00  0.00    +0.246 C 
ATOM      2  O   UNL     1      20.710 -35.446 -20.758  0.00  0.00    -0.270 OA
ATOM      3  N   UNL     1      19.269 -33.797 -21.434  0.00  0.00    -0.306 N 
ATOM      4  H   UNL     1      18.684 -33.387 -22.159  0.00  0.00    +0.149 HD
ENDROOT
BRANCH   1   8
ATOM      5  C   UNL     1      20.537 -36.182 -25.630  0.00  0.00    +0.111 A 
ATOM      6  N   UNL     1      19.825 -36.925 -24.757  0.00  0.00    -0.263 NA
ATOM      7  C   UNL     1      19.731 -36.443 -23.489  0.00  0.00    +0.123 A 
ATOM      8  C   UNL     1      20.308 -35.253 -23.061  0.00  0.00    +0.055 A 
ATOM      9  C   UNL     1      21.050 -34.520 -23.991  0.00  0.00    +0.016 A 
ATOM     10  C   UNL     1      21.164 -34.990 -25.299  0.00  0.00    +0.020 A 
ENDBRANCH   1   8
BRANCH   3  11
ATOM     11  C   UNL     1      18.895 -33.277 -20.114  0.00  0.00    +0.156 C 
BRANCH  11  12
ATOM     12  C   UNL     1      17.586 -33.923 -19.583  0.00  0.00    +0.059 C 
ATOM     13  O   UNL     1      17.583 -35.181 -19.506  0.00  0.00    -0.548 OA
ATOM     14  O   UNL     1      16.677 -33.082 -19.291  0.00  0.00    -0.548 OA
ENDBRANCH  11  12
ENDBRANCH   3  11
TORSDOF 3
ENDMDL
