
  MJ192500                      

 13 13  0  0  0  0  0  0  0  0999 V2000
   -3.3259    1.5616    0.0000 C   0  0  0  0  0  0  0  0  0  0  0  0
   -4.0403    1.1491    0.0000 C   0  0  0  0  0  0  0  0  0  0  0  0
   -4.0403    0.3240    0.0000 C   0  0  0  0  0  0  0  0  0  0  0  0
   -3.3259   -0.0884    0.0000 C   0  0  0  0  0  0  0  0  0  0  0  0
   -2.6114    0.3240    0.0000 C   0  0  0  0  0  0  0  0  0  0  0  0
   -2.6114    1.1491    0.0000 N   0  0  0  0  0  0  0  0  0  0  0  0
   -3.3259   -0.9134    0.0000 C   0  0  0  0  0  0  0  0  0  0  0  0
   -4.0404   -1.3259    0.0000 O   0  0  0  0  0  0  0  0  0  0  0  0
   -2.6115   -1.3259    0.0000 N   0  0  0  0  0  0  0  0  0  0  0  0
   -1.8970   -0.9134    0.0000 C   0  0  0  0  0  0  0  0  0  0  0  0
   -1.1825   -1.3259    0.0000 C   0  0  0  0  0  0  0  0  0  0  0  0
   -1.1825   -2.1509    0.0000 O   0  0  0  0  0  0  0  0  0  0  0  0
   -0.4680   -0.9134    0.0000 O   0  0  0  0  0  0  0  0  0  0  0  0
  1  2  2  0  0  0  0
  2  3  1  0  0  0  0
  3  4  2  0  0  0  0
  4  5  1  0  0  0  0
  5  6  2  0  0  0  0
  6  1  1  0  0  0  0
  4  7  1  0  0  0  0
  7  9  1  0  0  0  0
  9 10  1  0  0  0  0
 10 11  1  0  0  0  0
 11 13  2  0  0  0  0
 11 12  1  0  0  0  0
  7  8  2  0  0  0  0
M  END
