
  MJ192500                      

 13 13  0  0  0  0  0  0  0  0999 V2000
   -4.5536   -0.0901    0.0000 C   0  0  0  0  0  0  0  0  0  0  0  0
   -5.2680   -0.5026    0.0000 C   0  0  0  0  0  0  0  0  0  0  0  0
   -5.2680   -1.3277    0.0000 C   0  0  0  0  0  0  0  0  0  0  0  0
   -4.5536   -1.7402    0.0000 C   0  0  0  0  0  0  0  0  0  0  0  0
   -3.8391   -1.3277    0.0000 C   0  0  0  0  0  0  0  0  0  0  0  0
   -3.8391   -0.5026    0.0000 C   0  0  0  0  0  0  0  0  0  0  0  0
   -4.5536    0.7348    0.0000 F   0  0  0  0  0  0  0  0  0  0  0  0
   -4.5536   -2.5652    0.0000 F   0  0  0  0  0  0  0  0  0  0  0  0
   -3.1246   -1.7402    0.0000 F   0  0  0  0  0  0  0  0  0  0  0  0
   -3.1246   -0.0901    0.0000 C   0  0  0  0  0  0  0  0  0  0  0  0
   -2.4101   -0.5026    0.0000 C   0  0  0  0  0  0  0  0  0  0  0  0
   -1.6957   -0.0901    0.0000 O   0  0  0  0  0  0  0  0  0  0  0  0
   -2.4101   -1.3276    0.0000 O   0  0  0  0  0  0  0  0  0  0  0  0
  1  2  2  0  0  0  0
  2  3  1  0  0  0  0
  3  4  2  0  0  0  0
  4  5  1  0  0  0  0
  5  6  2  0  0  0  0
  6  1  1  0  0  0  0
  6 10  1  0  0  0  0
 10 11  1  0  0  0  0
  4  8  1  0  0  0  0
  5  9  1  0  0  0  0
  1  7  1  0  0  0  0
 11 13  2  0  0  0  0
 11 12  1  0  0  0  0
M  END
