
  MJ192500                      

 14 15  0  0  0  0  0  0  0  0999 V2000
   -5.2455    1.3830    0.0000 C   0  0  0  0  0  0  0  0  0  0  0  0
   -5.9599    0.9705    0.0000 C   0  0  0  0  0  0  0  0  0  0  0  0
   -5.9599    0.1454    0.0000 C   0  0  0  0  0  0  0  0  0  0  0  0
   -5.2455   -0.2670    0.0000 C   0  0  0  0  0  0  0  0  0  0  0  0
   -4.5310    0.1454    0.0000 C   0  0  0  0  0  0  0  0  0  0  0  0
   -4.5310    0.9705    0.0000 C   0  0  0  0  0  0  0  0  0  0  0  0
   -3.7465   -0.1095    0.0000 N   0  0  0  0  0  0  0  0  0  0  0  0
   -3.2615    0.5578    0.0000 C   0  0  0  0  0  0  0  0  0  0  0  0
   -3.7463    1.2253    0.0000 C   0  0  0  0  0  0  0  0  0  0  0  0
   -3.0319    1.6378    0.0000 C   0  0  0  0  0  0  0  0  0  0  0  0
   -2.3174    1.2253    0.0000 C   0  0  0  0  0  0  0  0  0  0  0  0
   -1.6029    1.6378    0.0000 C   0  0  0  0  0  0  0  0  0  0  0  0
   -0.8885    1.2253    0.0000 O   0  0  0  0  0  0  0  0  0  0  0  0
   -1.6029    2.4628    0.0000 O   0  0  0  0  0  0  0  0  0  0  0  0
  1  2  2  0  0  0  0
  2  3  1  0  0  0  0
  3  4  2  0  0  0  0
  4  5  1  0  0  0  0
  5  6  2  0  0  0  0
  6  1  1  0  0  0  0
  8  9  2  0  0  0  0
  6  9  1  0  0  0  0
  7  8  1  0  0  0  0
  5  7  1  0  0  0  0
  9 10  1  0  0  0  0
 10 11  1  0  0  0  0
 11 12  1  0  0  0  0
 12 13  1  0  0  0  0
 12 14  2  0  0  0  0
M  END
