
  MJ192500                      

 17 19  0  0  0  0  0  0  0  0999 V2000
   -4.3973    0.1330    0.0000 C   0  0  0  0  0  0  0  0  0  0  0  0
   -5.1117   -0.2794    0.0000 C   0  0  0  0  0  0  0  0  0  0  0  0
   -5.1117   -1.1045    0.0000 C   0  0  0  0  0  0  0  0  0  0  0  0
   -4.3973   -1.5170    0.0000 C   0  0  0  0  0  0  0  0  0  0  0  0
   -3.6828   -1.1045    0.0000 C   0  0  0  0  0  0  0  0  0  0  0  0
   -3.6828   -0.2794    0.0000 C   0  0  0  0  0  0  0  0  0  0  0  0
   -2.9683   -1.5170    0.0000 O   0  0  0  0  0  0  0  0  0  0  0  0
   -2.2539   -1.1044    0.0000 C   0  0  0  0  0  0  0  0  0  0  0  0
   -2.2538   -0.2794    0.0000 C   0  0  0  0  0  0  0  0  0  0  0  0
   -2.9683    0.1330    0.0000 C   0  0  0  0  0  0  0  0  0  0  0  0
   -1.5394   -1.5170    0.0000 C   0  0  0  0  0  0  0  0  0  0  0  0
   -0.8249   -1.1047    0.0000 C   0  0  0  0  0  0  0  0  0  0  0  0
   -0.8247   -0.2797    0.0000 C   0  0  0  0  0  0  0  0  0  0  0  0
   -1.5392    0.1329    0.0000 C   0  0  0  0  0  0  0  0  0  0  0  0
   -2.9683    0.9580    0.0000 C   0  0  0  0  0  0  0  0  0  0  0  0
   -3.6828    1.3705    0.0000 O   0  0  0  0  0  0  0  0  0  0  0  0
   -2.2539    1.3705    0.0000 O   0  0  0  0  0  0  0  0  0  0  0  0
  1  2  2  0  0  0  0
  2  3  1  0  0  0  0
  3  4  2  0  0  0  0
  4  5  1  0  0  0  0
  5  6  2  0  0  0  0
  6  1  1  0  0  0  0
  8  9  2  0  0  0  0
  9 10  1  0  0  0  0
  6 10  1  0  0  0  0
 11 12  2  0  0  0  0
 12 13  1  0  0  0  0
 13 14  2  0  0  0  0
  8 11  1  0  0  0  0
 14  9  1  0  0  0  0
 10 15  1  0  0  0  0
 15 17  1  0  0  0  0
 15 16  2  0  0  0  0
  7  8  1  0  0  0  0
  5  7  1  0  0  0  0
M  END
