MODEL 1
REMARK VINA RESULT:    -6.360      0.000      0.000
REMARK INTER + INTRA:          -6.992
REMARK INTER:                  -6.737
REMARK INTRA:                  -0.255
REMARK UNBOUND:                -0.261
REMARK  Name = 
REMARK  1 active torsions:
REMARK  status: ('A' for Active; 'I' for Inactive)
REMARK    1  A    between atoms: C_10  and  C_15
REMARK                            x       y       z     vdW  Elec       q    Type
REMARK                         _______ _______ _______ _____ _____    ______ ____
ROOT
ATOM      1  C   UNL     1      21.401 -35.253 -23.315  0.00  0.00    +0.008 A 
ATOM      2  C   UNL     1      20.523 -34.737 -22.348  0.00  0.00    +0.008 A 
ATOM      3  C   UNL     1      20.503 -35.300 -20.946  0.00  0.00    +0.101 C 
ATOM      4  C   UNL     1      19.552 -34.563 -20.033  0.00  0.00    +0.008 A 
ATOM      5  C   UNL     1      19.454 -34.904 -18.673  0.00  0.00    +0.008 A 
ATOM      6  C   UNL     1      18.587 -34.215 -17.825  0.00  0.00    +0.001 A 
ATOM      7  C   UNL     1      17.810 -33.172 -18.325  0.00  0.00    +0.004 A 
ATOM      8  C   UNL     1      17.906 -32.821 -19.670  0.00  0.00    +0.046 A 
ATOM      9  C   UNL     1      18.776 -33.510 -20.521  0.00  0.00    +0.133 A 
ATOM     10  O   UNL     1      18.809 -33.075 -21.824  0.00  0.00    -0.455 OA
ATOM     11  C   UNL     1      19.687 -33.673 -22.695  0.00  0.00    +0.133 A 
ATOM     12  C   UNL     1      19.716 -33.146 -23.989  0.00  0.00    +0.046 A 
ATOM     13  C   UNL     1      20.585 -33.671 -24.945  0.00  0.00    +0.004 A 
ATOM     14  C   UNL     1      21.429 -34.726 -24.607  0.00  0.00    +0.001 A 
ENDROOT
BRANCH   3  15
ATOM     15  C   UNL     1      20.204 -36.818 -20.957  0.00  0.00    +0.054 C 
ATOM     16  O   UNL     1      21.171 -37.543 -20.560  0.00  0.00    -0.549 OA
ATOM     17  O   UNL     1      19.060 -37.189 -21.348  0.00  0.00    -0.549 OA
ENDBRANCH   3  15
TORSDOF 1
ENDMDL
MODEL 2
REMARK VINA RESULT:    -6.201      1.717      5.594
REMARK INTER + INTRA:          -6.824
REMARK INTER:                  -6.585
REMARK INTRA:                  -0.239
REMARK UNBOUND:                -0.261
REMARK  Name = 
REMARK  1 active torsions:
REMARK  status: ('A' for Active; 'I' for Inactive)
REMARK    1  A    between atoms: C_10  and  C_15
REMARK                            x       y       z     vdW  Elec       q    Type
REMARK                         _______ _______ _______ _____ _____    ______ ____
ROOT
ATOM      1  C   UNL     1      19.382 -32.838 -21.409  0.00  0.00    +0.008 A 
ATOM      2  C   UNL     1      19.805 -33.936 -22.176  0.00  0.00    +0.008 A 
ATOM      3  C   UNL     1      20.136 -33.772 -23.641  0.00  0.00    +0.101 C 
ATOM      4  C   UNL     1      20.646 -35.046 -24.272  0.00  0.00    +0.008 A 
ATOM      5  C   UNL     1      21.070 -35.063 -25.611  0.00  0.00    +0.008 A 
ATOM      6  C   UNL     1      21.555 -36.235 -26.192  0.00  0.00    +0.001 A 
ATOM      7  C   UNL     1      21.627 -37.405 -25.439  0.00  0.00    +0.004 A 
ATOM      8  C   UNL     1      21.216 -37.396 -24.106  0.00  0.00    +0.046 A 
ATOM      9  C   UNL     1      20.731 -36.221 -23.523  0.00  0.00    +0.133 A 
ATOM     10  O   UNL     1      20.370 -36.314 -22.201  0.00  0.00    -0.455 OA
ATOM     11  C   UNL     1      19.941 -35.179 -21.555  0.00  0.00    +0.133 A 
ATOM     12  C   UNL     1      19.646 -35.327 -20.196  0.00  0.00    +0.046 A 
ATOM     13  C   UNL     1      19.219 -34.232 -19.446  0.00  0.00    +0.004 A 
ATOM     14  C   UNL     1      19.087 -32.986 -20.053  0.00  0.00    +0.001 A 
ENDROOT
BRANCH   3  15
ATOM     15  C   UNL     1      18.932 -33.202 -24.427  0.00  0.00    +0.054 C 
ATOM     16  O   UNL     1      19.183 -32.126 -25.058  0.00  0.00    -0.549 OA
ATOM     17  O   UNL     1      17.840 -33.837 -24.372  0.00  0.00    -0.549 OA
ENDBRANCH   3  15
TORSDOF 1
ENDMDL
MODEL 3
REMARK VINA RESULT:    -6.093      2.226      3.890
REMARK INTER + INTRA:          -6.709
REMARK INTER:                  -6.560
REMARK INTRA:                  -0.149
REMARK UNBOUND:                -0.261
REMARK  Name = 
REMARK  1 active torsions:
REMARK  status: ('A' for Active; 'I' for Inactive)
REMARK    1  A    between atoms: C_10  and  C_15
REMARK                            x       y       z     vdW  Elec       q    Type
REMARK                         _______ _______ _______ _____ _____    ______ ____
ROOT
ATOM      1  C   UNL     1      19.874 -36.432 -25.427  0.00  0.00    +0.008 A 
ATOM      2  C   UNL     1      19.938 -35.995 -24.093  0.00  0.00    +0.008 A 
ATOM      3  C   UNL     1      19.561 -34.578 -23.727  0.00  0.00    +0.101 C 
ATOM      4  C   UNL     1      19.618 -34.324 -22.239  0.00  0.00    +0.008 A 
ATOM      5  C   UNL     1      19.232 -33.081 -21.709  0.00  0.00    +0.008 A 
ATOM      6  C   UNL     1      19.271 -32.848 -20.334  0.00  0.00    +0.001 A 
ATOM      7  C   UNL     1      19.691 -33.858 -19.471  0.00  0.00    +0.004 A 
ATOM      8  C   UNL     1      20.069 -35.097 -19.986  0.00  0.00    +0.046 A 
ATOM      9  C   UNL     1      20.030 -35.331 -21.364  0.00  0.00    +0.133 A 
ATOM     10  O   UNL     1      20.404 -36.589 -21.769  0.00  0.00    -0.455 OA
ATOM     11  C   UNL     1      20.330 -36.901 -23.105  0.00  0.00    +0.133 A 
ATOM     12  C   UNL     1      20.667 -38.214 -23.445  0.00  0.00    +0.046 A 
ATOM     13  C   UNL     1      20.609 -38.636 -24.773  0.00  0.00    +0.004 A 
ATOM     14  C   UNL     1      20.211 -37.743 -25.765  0.00  0.00    +0.001 A 
ENDROOT
BRANCH   3  15
ATOM     15  C   UNL     1      20.419 -33.552 -24.503  0.00  0.00    +0.054 C 
ATOM     16  O   UNL     1      19.750 -32.610 -25.036  0.00  0.00    -0.549 OA
ATOM     17  O   UNL     1      21.669 -33.737 -24.538  0.00  0.00    -0.549 OA
ENDBRANCH   3  15
TORSDOF 1
ENDMDL
MODEL 4
REMARK VINA RESULT:    -5.933      0.813      4.529
REMARK INTER + INTRA:          -6.540
REMARK INTER:                  -6.284
REMARK INTRA:                  -0.256
REMARK UNBOUND:                -0.261
REMARK  Name = 
REMARK  1 active torsions:
REMARK  status: ('A' for Active; 'I' for Inactive)
REMARK    1  A    between atoms: C_10  and  C_15
REMARK                            x       y       z     vdW  Elec       q    Type
REMARK                         _______ _______ _______ _____ _____    ______ ____
ROOT
ATOM      1  C   UNL     1      18.711 -35.551 -18.975  0.00  0.00    +0.008 A 
ATOM      2  C   UNL     1      19.123 -34.994 -20.197  0.00  0.00    +0.008 A 
ATOM      3  C   UNL     1      19.690 -35.869 -21.291  0.00  0.00    +0.101 C 
ATOM      4  C   UNL     1      20.001 -35.099 -22.554  0.00  0.00    +0.008 A 
ATOM      5  C   UNL     1      20.470 -35.762 -23.700  0.00  0.00    +0.008 A 
ATOM      6  C   UNL     1      20.745 -35.056 -24.871  0.00  0.00    +0.001 A 
ATOM      7  C   UNL     1      20.548 -33.677 -24.912  0.00  0.00    +0.004 A 
ATOM      8  C   UNL     1      20.076 -33.011 -23.782  0.00  0.00    +0.046 A 
ATOM      9  C   UNL     1      19.799 -33.719 -22.608  0.00  0.00    +0.133 A 
ATOM     10  O   UNL     1      19.321 -32.973 -21.558  0.00  0.00    -0.455 OA
ATOM     11  C   UNL     1      18.975 -33.620 -20.396  0.00  0.00    +0.133 A 
ATOM     12  C   UNL     1      18.439 -32.814 -19.387  0.00  0.00    +0.046 A 
ATOM     13  C   UNL     1      18.040 -33.375 -18.175  0.00  0.00    +0.004 A 
ATOM     14  C   UNL     1      18.175 -34.746 -17.969  0.00  0.00    +0.001 A 
ENDROOT
BRANCH   3  15
ATOM     15  C   UNL     1      20.927 -36.653 -20.796  0.00  0.00    +0.054 C 
ATOM     16  O   UNL     1      20.798 -37.918 -20.847  0.00  0.00    -0.549 OA
ATOM     17  O   UNL     1      21.925 -35.987 -20.396  0.00  0.00    -0.549 OA
ENDBRANCH   3  15
TORSDOF 1
ENDMDL
MODEL 5
REMARK VINA RESULT:    -5.738      1.433      3.328
REMARK INTER + INTRA:          -6.334
REMARK INTER:                  -6.132
REMARK INTRA:                  -0.201
REMARK UNBOUND:                -0.261
REMARK  Name = 
REMARK  1 active torsions:
REMARK  status: ('A' for Active; 'I' for Inactive)
REMARK    1  A    between atoms: C_10  and  C_15
REMARK                            x       y       z     vdW  Elec       q    Type
REMARK                         _______ _______ _______ _____ _____    ______ ____
ROOT
ATOM      1  C   UNL     1      18.770 -33.240 -23.277  0.00  0.00    +0.008 A 
ATOM      2  C   UNL     1      19.424 -34.052 -22.336  0.00  0.00    +0.008 A 
ATOM      3  C   UNL     1      18.824 -34.285 -20.969  0.00  0.00    +0.101 C 
ATOM      4  C   UNL     1      19.634 -35.247 -20.131  0.00  0.00    +0.008 A 
ATOM      5  C   UNL     1      19.189 -35.637 -18.857  0.00  0.00    +0.008 A 
ATOM      6  C   UNL     1      19.927 -36.536 -18.087  0.00  0.00    +0.001 A 
ATOM      7  C   UNL     1      21.118 -37.061 -18.585  0.00  0.00    +0.004 A 
ATOM      8  C   UNL     1      21.564 -36.686 -19.851  0.00  0.00    +0.046 A 
ATOM      9  C   UNL     1      20.823 -35.786 -20.624  0.00  0.00    +0.133 A 
ATOM     10  O   UNL     1      21.338 -35.496 -21.864  0.00  0.00    -0.455 OA
ATOM     11  C   UNL     1      20.627 -34.664 -22.694  0.00  0.00    +0.133 A 
ATOM     12  C   UNL     1      21.175 -34.456 -23.964  0.00  0.00    +0.046 A 
ATOM     13  C   UNL     1      20.521 -33.641 -24.888  0.00  0.00    +0.004 A 
ATOM     14  C   UNL     1      19.317 -33.033 -24.544  0.00  0.00    +0.001 A 
ENDROOT
BRANCH   3  15
ATOM     15  C   UNL     1      18.595 -32.950 -20.223  0.00  0.00    +0.054 C 
ATOM     16  O   UNL     1      19.619 -32.197 -20.175  0.00  0.00    -0.549 OA
ATOM     17  O   UNL     1      17.445 -32.735 -19.741  0.00  0.00    -0.549 OA
ENDBRANCH   3  15
TORSDOF 1
ENDMDL
MODEL 6
REMARK VINA RESULT:    -5.427      1.892      4.798
REMARK INTER + INTRA:          -6.005
REMARK INTER:                  -5.776
REMARK INTRA:                  -0.229
REMARK UNBOUND:                -0.261
REMARK  Name = 
REMARK  1 active torsions:
REMARK  status: ('A' for Active; 'I' for Inactive)
REMARK    1  A    between atoms: C_10  and  C_15
REMARK                            x       y       z     vdW  Elec       q    Type
REMARK                         _______ _______ _______ _____ _____    ______ ____
ROOT
ATOM      1  C   UNL     1      21.166 -35.874 -18.424  0.00  0.00    +0.008 A 
ATOM      2  C   UNL     1      21.035 -35.614 -19.798  0.00  0.00    +0.008 A 
ATOM      3  C   UNL     1      19.994 -34.642 -20.304  0.00  0.00    +0.101 C 
ATOM      4  C   UNL     1      20.062 -34.438 -21.799  0.00  0.00    +0.008 A 
ATOM      5  C   UNL     1      19.215 -33.515 -22.435  0.00  0.00    +0.008 A 
ATOM      6  C   UNL     1      19.285 -33.314 -23.814  0.00  0.00    +0.001 A 
ATOM      7  C   UNL     1      20.208 -34.030 -24.574  0.00  0.00    +0.004 A 
ATOM      8  C   UNL     1      21.058 -34.943 -23.950  0.00  0.00    +0.046 A 
ATOM      9  C   UNL     1      20.989 -35.144 -22.568  0.00  0.00    +0.133 A 
ATOM     10  O   UNL     1      21.881 -36.050 -22.049  0.00  0.00    -0.455 OA
ATOM     11  C   UNL     1      21.903 -36.248 -20.690  0.00  0.00    +0.133 A 
ATOM     12  C   UNL     1      22.873 -37.138 -20.219  0.00  0.00    +0.046 A 
ATOM     13  C   UNL     1      22.990 -37.395 -18.853  0.00  0.00    +0.004 A 
ATOM     14  C   UNL     1      22.135 -36.762 -17.955  0.00  0.00    +0.001 A 
ENDROOT
BRANCH   3  15
ATOM     15  C   UNL     1      18.573 -35.064 -19.861  0.00  0.00    +0.054 C 
ATOM     16  O   UNL     1      18.255 -36.251 -20.190  0.00  0.00    -0.549 OA
ATOM     17  O   UNL     1      17.877 -34.216 -19.232  0.00  0.00    -0.549 OA
ENDBRANCH   3  15
TORSDOF 1
ENDMDL
MODEL 7
REMARK VINA RESULT:    -5.345      2.318      3.597
REMARK INTER + INTRA:          -5.918
REMARK INTER:                  -5.657
REMARK INTRA:                  -0.260
REMARK UNBOUND:                -0.261
REMARK  Name = 
REMARK  1 active torsions:
REMARK  status: ('A' for Active; 'I' for Inactive)
REMARK    1  A    between atoms: C_10  and  C_15
REMARK                            x       y       z     vdW  Elec       q    Type
REMARK                         _______ _______ _______ _____ _____    ______ ____
ROOT
ATOM      1  C   UNL     1      22.824 -36.967 -19.013  0.00  0.00    +0.008 A 
ATOM      2  C   UNL     1      21.753 -36.130 -19.366  0.00  0.00    +0.008 A 
ATOM      3  C   UNL     1      20.917 -35.457 -18.302  0.00  0.00    +0.101 C 
ATOM      4  C   UNL     1      19.866 -34.537 -18.878  0.00  0.00    +0.008 A 
ATOM      5  C   UNL     1      19.043 -33.773 -18.034  0.00  0.00    +0.008 A 
ATOM      6  C   UNL     1      18.081 -32.912 -18.564  0.00  0.00    +0.001 A 
ATOM      7  C   UNL     1      17.936 -32.800 -19.946  0.00  0.00    +0.004 A 
ATOM      8  C   UNL     1      18.754 -33.548 -20.791  0.00  0.00    +0.046 A 
ATOM      9  C   UNL     1      19.718 -34.410 -20.260  0.00  0.00    +0.133 A 
ATOM     10  O   UNL     1      20.485 -35.088 -21.177  0.00  0.00    -0.455 OA
ATOM     11  C   UNL     1      21.490 -35.906 -20.719  0.00  0.00    +0.133 A 
ATOM     12  C   UNL     1      22.272 -36.520 -21.702  0.00  0.00    +0.046 A 
ATOM     13  C   UNL     1      23.328 -37.356 -21.341  0.00  0.00    +0.004 A 
ATOM     14  C   UNL     1      23.604 -37.580 -19.995  0.00  0.00    +0.001 A 
ENDROOT
BRANCH   3  15
ATOM     15  C   UNL     1      20.286 -36.496 -17.346  0.00  0.00    +0.054 C 
ATOM     16  O   UNL     1      19.489 -37.311 -17.913  0.00  0.00    -0.549 OA
ATOM     17  O   UNL     1      20.608 -36.444 -16.124  0.00  0.00    -0.549 OA
ENDBRANCH   3  15
TORSDOF 1
ENDMDL
MODEL 8
REMARK VINA RESULT:    -5.298      1.722      4.606
REMARK INTER + INTRA:          -5.868
REMARK INTER:                  -5.617
REMARK INTRA:                  -0.251
REMARK UNBOUND:                -0.261
REMARK  Name = 
REMARK  1 active torsions:
REMARK  status: ('A' for Active; 'I' for Inactive)
REMARK    1  A    between atoms: C_10  and  C_15
REMARK                            x       y       z     vdW  Elec       q    Type
REMARK                         _______ _______ _______ _____ _____    ______ ____
ROOT
ATOM      1  C   UNL     1      20.051 -35.119 -19.170  0.00  0.00    +0.008 A 
ATOM      2  C   UNL     1      20.069 -35.309 -20.562  0.00  0.00    +0.008 A 
ATOM      3  C   UNL     1      20.493 -36.634 -21.153  0.00  0.00    +0.101 C 
ATOM      4  C   UNL     1      20.371 -36.668 -22.659  0.00  0.00    +0.008 A 
ATOM      5  C   UNL     1      20.655 -37.843 -23.374  0.00  0.00    +0.008 A 
ATOM      6  C   UNL     1      20.530 -37.882 -24.763  0.00  0.00    +0.001 A 
ATOM      7  C   UNL     1      20.112 -36.746 -25.453  0.00  0.00    +0.004 A 
ATOM      8  C   UNL     1      19.820 -35.577 -24.752  0.00  0.00    +0.046 A 
ATOM      9  C   UNL     1      19.945 -35.538 -23.359  0.00  0.00    +0.133 A 
ATOM     10  O   UNL     1      19.616 -34.346 -22.761  0.00  0.00    -0.455 OA
ATOM     11  C   UNL     1      19.661 -34.262 -21.391  0.00  0.00    +0.133 A 
ATOM     12  C   UNL     1      19.257 -33.042 -20.841  0.00  0.00    +0.046 A 
ATOM     13  C   UNL     1      19.251 -32.860 -19.459  0.00  0.00    +0.004 A 
ATOM     14  C   UNL     1      19.648 -33.900 -18.622  0.00  0.00    +0.001 A 
ENDROOT
BRANCH   3  15
ATOM     15  C   UNL     1      21.921 -37.017 -20.699  0.00  0.00    +0.054 C 
ATOM     16  O   UNL     1      22.837 -36.267 -21.168  0.00  0.00    -0.549 OA
ATOM     17  O   UNL     1      22.047 -38.012 -19.928  0.00  0.00    -0.549 OA
ENDBRANCH   3  15
TORSDOF 1
ENDMDL
MODEL 9
REMARK VINA RESULT:    -5.170      3.959      5.944
REMARK INTER + INTRA:          -5.733
REMARK INTER:                  -5.472
REMARK INTRA:                  -0.261
REMARK UNBOUND:                -0.261
REMARK  Name = 
REMARK  1 active torsions:
REMARK  status: ('A' for Active; 'I' for Inactive)
REMARK    1  A    between atoms: C_10  and  C_15
REMARK                            x       y       z     vdW  Elec       q    Type
REMARK                         _______ _______ _______ _____ _____    ______ ____
ROOT
ATOM      1  C   UNL     1      22.536 -38.902 -27.116  0.00  0.00    +0.008 A 
ATOM      2  C   UNL     1      21.790 -37.941 -26.414  0.00  0.00    +0.008 A 
ATOM      3  C   UNL     1      22.438 -36.663 -25.933  0.00  0.00    +0.101 C 
ATOM      4  C   UNL     1      21.457 -35.724 -25.270  0.00  0.00    +0.008 A 
ATOM      5  C   UNL     1      21.869 -34.457 -24.824  0.00  0.00    +0.008 A 
ATOM      6  C   UNL     1      20.962 -33.582 -24.224  0.00  0.00    +0.001 A 
ATOM      7  C   UNL     1      19.631 -33.963 -24.068  0.00  0.00    +0.004 A 
ATOM      8  C   UNL     1      19.212 -35.215 -24.514  0.00  0.00    +0.046 A 
ATOM      9  C   UNL     1      20.119 -36.091 -25.117  0.00  0.00    +0.133 A 
ATOM     10  O   UNL     1      19.603 -37.293 -25.538  0.00  0.00    -0.455 OA
ATOM     11  C   UNL     1      20.432 -38.173 -26.191  0.00  0.00    +0.133 A 
ATOM     12  C   UNL     1      19.832 -39.351 -26.647  0.00  0.00    +0.046 A 
ATOM     13  C   UNL     1      20.583 -40.302 -27.336  0.00  0.00    +0.004 A 
ATOM     14  C   UNL     1      21.937 -40.077 -27.572  0.00  0.00    +0.001 A 
ENDROOT
BRANCH   3  15
ATOM     15  C   UNL     1      23.642 -36.959 -25.008  0.00  0.00    +0.054 C 
ATOM     16  O   UNL     1      23.332 -37.541 -23.920  0.00  0.00    -0.549 OA
ATOM     17  O   UNL     1      24.789 -36.606 -25.405  0.00  0.00    -0.549 OA
ENDBRANCH   3  15
TORSDOF 1
ENDMDL
