
  MJ192500                      

  9  9  0  0  0  0  0  0  0  0999 V2000
   -5.1339    0.5795    0.0000 C   0  0  0  0  0  0  0  0  0  0  0  0
   -5.8483    0.1670    0.0000 C   0  0  0  0  0  0  0  0  0  0  0  0
   -5.8483   -0.6580    0.0000 C   0  0  0  0  0  0  0  0  0  0  0  0
   -5.1339   -1.0705    0.0000 N   0  0  0  0  0  0  0  0  0  0  0  0
   -4.4194   -0.6580    0.0000 C   0  0  0  0  0  0  0  0  0  0  0  0
   -4.4194    0.1670    0.0000 C   0  0  0  0  0  0  0  0  0  0  0  0
   -3.7050    0.5795    0.0000 C   0  0  0  0  0  0  0  0  0  0  0  0
   -2.9905    0.1670    0.0000 O   0  0  0  0  0  0  0  0  0  0  0  0
   -3.7050    1.4045    0.0000 O   0  0  0  0  0  0  0  0  0  0  0  0
  1  2  2  0  0  0  0
  2  3  1  0  0  0  0
  5  6  2  0  0  0  0
  6  1  1  0  0  0  0
  3  4  2  0  0  0  0
  4  5  1  0  0  0  0
  6  7  1  0  0  0  0
  7  8  1  0  0  0  0
  7  9  2  0  0  0  0
M  END
