MODEL 1
REMARK VINA RESULT:    -4.108      0.000      0.000
REMARK INTER + INTRA:          -4.367
REMARK INTER:                  -4.348
REMARK INTRA:                  -0.019
REMARK UNBOUND:                -0.019
REMARK  Name = 
REMARK  1 active torsions:
REMARK  status: ('A' for Active; 'I' for Inactive)
REMARK    1  A    between atoms: C_6  and  C_7
REMARK                            x       y       z     vdW  Elec       q    Type
REMARK                         _______ _______ _______ _____ _____    ______ ____
ROOT
ATOM      1  C   UNL     1      18.945 -32.948 -20.438  0.00  0.00    +0.012 A 
ATOM      2  C   UNL     1      19.287 -33.784 -19.369  0.00  0.00    +0.015 A 
ATOM      3  C   UNL     1      19.991 -34.943 -19.674  0.00  0.00    +0.120 A 
ATOM      4  N   UNL     1      20.363 -35.311 -20.931  0.00  0.00    -0.263 NA
ATOM      5  C   UNL     1      20.009 -34.472 -21.927  0.00  0.00    +0.111 A 
ATOM      6  C   UNL     1      19.308 -33.294 -21.737  0.00  0.00    +0.020 A 
ENDROOT
BRANCH   2   7
ATOM      7  C   UNL     1      18.919 -33.457 -17.950  0.00  0.00    +0.073 C 
ATOM      8  O   UNL     1      19.870 -33.362 -17.112  0.00  0.00    -0.545 OA
ATOM      9  O   UNL     1      17.683 -33.300 -17.696  0.00  0.00    -0.545 OA
ENDBRANCH   2   7
TORSDOF 1
ENDMDL
MODEL 2
REMARK VINA RESULT:    -3.957      3.497      4.393
REMARK INTER + INTRA:          -4.206
REMARK INTER:                  -4.189
REMARK INTRA:                  -0.017
REMARK UNBOUND:                -0.019
REMARK  Name = 
REMARK  1 active torsions:
REMARK  status: ('A' for Active; 'I' for Inactive)
REMARK    1  A    between atoms: C_6  and  C_7
REMARK                            x       y       z     vdW  Elec       q    Type
REMARK                         _______ _______ _______ _____ _____    ______ ____
ROOT
ATOM      1  C   UNL     1      19.159 -33.015 -21.462  0.00  0.00    +0.012 A 
ATOM      2  C   UNL     1      19.597 -33.712 -22.594  0.00  0.00    +0.015 A 
ATOM      3  C   UNL     1      20.234 -34.929 -22.380  0.00  0.00    +0.120 A 
ATOM      4  N   UNL     1      20.457 -35.478 -21.154  0.00  0.00    -0.263 NA
ATOM      5  C   UNL     1      20.016 -34.767 -20.095  0.00  0.00    +0.111 A 
ATOM      6  C   UNL     1      19.370 -33.546 -20.193  0.00  0.00    +0.020 A 
ENDROOT
BRANCH   2   7
ATOM      7  C   UNL     1      19.394 -33.183 -23.985  0.00  0.00    +0.073 C 
ATOM      8  O   UNL     1      18.217 -33.243 -24.462  0.00  0.00    -0.545 OA
ATOM      9  O   UNL     1      20.416 -32.716 -24.580  0.00  0.00    -0.545 OA
ENDBRANCH   2   7
TORSDOF 1
ENDMDL
MODEL 3
REMARK VINA RESULT:    -3.926      2.528      3.236
REMARK INTER + INTRA:          -4.174
REMARK INTER:                  -4.152
REMARK INTRA:                  -0.022
REMARK UNBOUND:                -0.019
REMARK  Name = 
REMARK  1 active torsions:
REMARK  status: ('A' for Active; 'I' for Inactive)
REMARK    1  A    between atoms: C_6  and  C_7
REMARK                            x       y       z     vdW  Elec       q    Type
REMARK                         _______ _______ _______ _____ _____    ______ ____
ROOT
ATOM      1  C   UNL     1      19.732 -32.983 -23.410  0.00  0.00    +0.012 A 
ATOM      2  C   UNL     1      19.884 -33.958 -22.418  0.00  0.00    +0.015 A 
ATOM      3  C   UNL     1      20.584 -35.108 -22.764  0.00  0.00    +0.120 A 
ATOM      4  N   UNL     1      21.124 -35.342 -23.991  0.00  0.00    -0.263 NA
ATOM      5  C   UNL     1      20.950 -34.371 -24.913  0.00  0.00    +0.111 A 
ATOM      6  C   UNL     1      20.270 -33.188 -24.677  0.00  0.00    +0.020 A 
ENDROOT
BRANCH   2   7
ATOM      7  C   UNL     1      19.322 -33.784 -21.035  0.00  0.00    +0.073 C 
ATOM      8  O   UNL     1      18.798 -34.807 -20.490  0.00  0.00    -0.545 OA
ATOM      9  O   UNL     1      19.411 -32.627 -20.517  0.00  0.00    -0.545 OA
ENDBRANCH   2   7
TORSDOF 1
ENDMDL
MODEL 4
REMARK VINA RESULT:    -3.853      1.328      1.984
REMARK INTER + INTRA:          -4.097
REMARK INTER:                  -4.071
REMARK INTRA:                  -0.026
REMARK UNBOUND:                -0.019
REMARK  Name = 
REMARK  1 active torsions:
REMARK  status: ('A' for Active; 'I' for Inactive)
REMARK    1  A    between atoms: C_6  and  C_7
REMARK                            x       y       z     vdW  Elec       q    Type
REMARK                         _______ _______ _______ _____ _____    ______ ____
ROOT
ATOM      1  C   UNL     1      20.222 -35.176 -20.161  0.00  0.00    +0.012 A 
ATOM      2  C   UNL     1      19.725 -34.189 -19.303  0.00  0.00    +0.015 A 
ATOM      3  C   UNL     1      19.111 -33.090 -19.892  0.00  0.00    +0.120 A 
ATOM      4  N   UNL     1      18.966 -32.915 -21.234  0.00  0.00    -0.263 NA
ATOM      5  C   UNL     1      19.461 -33.895 -22.019  0.00  0.00    +0.111 A 
ATOM      6  C   UNL     1      20.091 -35.031 -21.539  0.00  0.00    +0.020 A 
ENDROOT
BRANCH   2   7
ATOM      7  C   UNL     1      19.841 -34.299 -17.809  0.00  0.00    +0.073 C 
ATOM      8  O   UNL     1      19.714 -33.227 -17.138  0.00  0.00    -0.545 OA
ATOM      9  O   UNL     1      20.058 -35.456 -17.330  0.00  0.00    -0.545 OA
ENDBRANCH   2   7
TORSDOF 1
ENDMDL
MODEL 5
REMARK VINA RESULT:    -3.778      0.953      1.946
REMARK INTER + INTRA:          -4.018
REMARK INTER:                  -3.999
REMARK INTRA:                  -0.019
REMARK UNBOUND:                -0.019
REMARK  Name = 
REMARK  1 active torsions:
REMARK  status: ('A' for Active; 'I' for Inactive)
REMARK    1  A    between atoms: C_6  and  C_7
REMARK                            x       y       z     vdW  Elec       q    Type
REMARK                         _______ _______ _______ _____ _____    ______ ____
ROOT
ATOM      1  C   UNL     1      20.032 -35.128 -19.950  0.00  0.00    +0.012 A 
ATOM      2  C   UNL     1      19.427 -33.907 -19.628  0.00  0.00    +0.015 A 
ATOM      3  C   UNL     1      19.199 -33.020 -20.674  0.00  0.00    +0.120 A 
ATOM      4  N   UNL     1      19.523 -33.261 -21.974  0.00  0.00    -0.263 NA
ATOM      5  C   UNL     1      20.104 -34.452 -22.232  0.00  0.00    +0.111 A 
ATOM      6  C   UNL     1      20.377 -35.407 -21.268  0.00  0.00    +0.020 A 
ENDROOT
BRANCH   2   7
ATOM      7  C   UNL     1      19.036 -33.556 -18.221  0.00  0.00    +0.073 C 
ATOM      8  O   UNL     1      17.800 -33.363 -17.995  0.00  0.00    -0.545 OA
ATOM      9  O   UNL     1      19.971 -33.479 -17.363  0.00  0.00    -0.545 OA
ENDBRANCH   2   7
TORSDOF 1
ENDMDL
MODEL 6
REMARK VINA RESULT:    -3.708      2.272      2.857
REMARK INTER + INTRA:          -3.943
REMARK INTER:                  -3.917
REMARK INTRA:                  -0.027
REMARK UNBOUND:                -0.019
REMARK  Name = 
REMARK  1 active torsions:
REMARK  status: ('A' for Active; 'I' for Inactive)
REMARK    1  A    between atoms: C_6  and  C_7
REMARK                            x       y       z     vdW  Elec       q    Type
REMARK                         _______ _______ _______ _____ _____    ______ ____
ROOT
ATOM      1  C   UNL     1      19.713 -34.016 -19.995  0.00  0.00    +0.012 A 
ATOM      2  C   UNL     1      19.569 -34.420 -18.662  0.00  0.00    +0.015 A 
ATOM      3  C   UNL     1      18.502 -33.883 -17.951  0.00  0.00    +0.120 A 
ATOM      4  N   UNL     1      17.601 -33.000 -18.463  0.00  0.00    -0.263 NA
ATOM      5  C   UNL     1      17.783 -32.643 -19.752  0.00  0.00    +0.111 A 
ATOM      6  C   UNL     1      18.810 -33.115 -20.551  0.00  0.00    +0.020 A 
ENDROOT
BRANCH   2   7
ATOM      7  C   UNL     1      20.516 -35.390 -18.015  0.00  0.00    +0.073 C 
ATOM      8  O   UNL     1      21.557 -35.708 -18.671  0.00  0.00    -0.545 OA
ATOM      9  O   UNL     1      20.202 -35.820 -16.861  0.00  0.00    -0.545 OA
ENDBRANCH   2   7
TORSDOF 1
ENDMDL
MODEL 7
REMARK VINA RESULT:    -3.701      4.757      5.604
REMARK INTER + INTRA:          -3.936
REMARK INTER:                  -3.910
REMARK INTRA:                  -0.025
REMARK UNBOUND:                -0.019
REMARK  Name = 
REMARK  1 active torsions:
REMARK  status: ('A' for Active; 'I' for Inactive)
REMARK    1  A    between atoms: C_6  and  C_7
REMARK                            x       y       z     vdW  Elec       q    Type
REMARK                         _______ _______ _______ _____ _____    ______ ____
ROOT
ATOM      1  C   UNL     1      20.821 -33.648 -24.810  0.00  0.00    +0.012 A 
ATOM      2  C   UNL     1      21.333 -34.625 -23.948  0.00  0.00    +0.015 A 
ATOM      3  C   UNL     1      20.600 -34.902 -22.800  0.00  0.00    +0.120 A 
ATOM      4  N   UNL     1      19.431 -34.290 -22.466  0.00  0.00    -0.263 NA
ATOM      5  C   UNL     1      18.979 -33.355 -23.329  0.00  0.00    +0.111 A 
ATOM      6  C   UNL     1      19.629 -33.001 -24.500  0.00  0.00    +0.020 A 
ENDROOT
BRANCH   2   7
ATOM      7  C   UNL     1      22.616 -35.351 -24.238  0.00  0.00    +0.073 C 
ATOM      8  O   UNL     1      22.771 -36.490 -23.696  0.00  0.00    -0.545 OA
ATOM      9  O   UNL     1      23.449 -34.770 -25.003  0.00  0.00    -0.545 OA
ENDBRANCH   2   7
TORSDOF 1
ENDMDL
MODEL 8
REMARK VINA RESULT:    -3.579      2.324      3.276
REMARK INTER + INTRA:          -3.806
REMARK INTER:                  -3.779
REMARK INTRA:                  -0.027
REMARK UNBOUND:                -0.019
REMARK  Name = 
REMARK  1 active torsions:
REMARK  status: ('A' for Active; 'I' for Inactive)
REMARK    1  A    between atoms: C_6  and  C_7
REMARK                            x       y       z     vdW  Elec       q    Type
REMARK                         _______ _______ _______ _____ _____    ______ ____
ROOT
ATOM      1  C   UNL     1      20.394 -35.158 -20.175  0.00  0.00    +0.012 A 
ATOM      2  C   UNL     1      19.608 -34.090 -19.726  0.00  0.00    +0.015 A 
ATOM      3  C   UNL     1      19.455 -33.951 -18.352  0.00  0.00    +0.120 A 
ATOM      4  N   UNL     1      20.015 -34.779 -17.427  0.00  0.00    -0.263 NA
ATOM      5  C   UNL     1      20.763 -35.793 -17.909  0.00  0.00    +0.111 A 
ATOM      6  C   UNL     1      20.981 -36.024 -19.257  0.00  0.00    +0.020 A 
ENDROOT
BRANCH   2   7
ATOM      7  C   UNL     1      18.952 -33.128 -20.676  0.00  0.00    +0.073 C 
ATOM      8  O   UNL     1      19.182 -33.291 -21.915  0.00  0.00    -0.545 OA
ATOM      9  O   UNL     1      18.218 -32.224 -20.166  0.00  0.00    -0.545 OA
ENDBRANCH   2   7
TORSDOF 1
ENDMDL
MODEL 9
REMARK VINA RESULT:    -3.524      4.624      5.461
REMARK INTER + INTRA:          -3.748
REMARK INTER:                  -3.731
REMARK INTRA:                  -0.017
REMARK UNBOUND:                -0.019
REMARK  Name = 
REMARK  1 active torsions:
REMARK  status: ('A' for Active; 'I' for Inactive)
REMARK    1  A    between atoms: C_6  and  C_7
REMARK                            x       y       z     vdW  Elec       q    Type
REMARK                         _______ _______ _______ _____ _____    ______ ____
ROOT
ATOM      1  C   UNL     1      21.518 -34.159 -24.567  0.00  0.00    +0.012 A 
ATOM      2  C   UNL     1      20.143 -34.400 -24.466  0.00  0.00    +0.015 A 
ATOM      3  C   UNL     1      19.710 -35.699 -24.703  0.00  0.00    +0.120 A 
ATOM      4  N   UNL     1      20.529 -36.738 -25.024  0.00  0.00    -0.263 NA
ATOM      5  C   UNL     1      21.846 -36.454 -25.110  0.00  0.00    +0.111 A 
ATOM      6  C   UNL     1      22.385 -35.197 -24.895  0.00  0.00    +0.020 A 
ENDROOT
BRANCH   2   7
ATOM      7  C   UNL     1      19.166 -33.314 -24.115  0.00  0.00    +0.073 C 
ATOM      8  O   UNL     1      18.894 -32.465 -25.022  0.00  0.00    -0.545 OA
ATOM      9  O   UNL     1      18.687 -33.326 -22.938  0.00  0.00    -0.545 OA
ENDBRANCH   2   7
TORSDOF 1
ENDMDL
