
  MJ192500                      

 10 10  0  0  0  0  0  0  0  0999 V2000
   -4.3973   -0.9160    0.0000 C   0  0  0  0  0  0  0  0  0  0  0  0
   -5.1117   -1.3285    0.0000 C   0  0  0  0  0  0  0  0  0  0  0  0
   -5.1117   -2.1536    0.0000 C   0  0  0  0  0  0  0  0  0  0  0  0
   -4.3973   -2.5661    0.0000 N   0  0  0  0  0  0  0  0  0  0  0  0
   -3.6828   -2.1536    0.0000 C   0  0  0  0  0  0  0  0  0  0  0  0
   -3.6828   -1.3285    0.0000 C   0  0  0  0  0  0  0  0  0  0  0  0
   -4.3973   -0.0910    0.0000 C   0  0  0  0  0  0  0  0  0  0  0  0
   -3.6829    0.3214    0.0000 C   0  0  0  0  0  0  0  0  0  0  0  0
   -2.9292   -0.0140    0.0000 O   0  0  0  0  0  0  0  0  0  0  0  0
   -3.7261    1.1453    0.0000 O   0  0  0  0  0  0  0  0  0  0  0  0
  1  2  2  0  0  0  0
  2  3  1  0  0  0  0
  5  6  2  0  0  0  0
  6  1  1  0  0  0  0
  1  7  1  0  0  0  0
  7  8  1  0  0  0  0
  8 10  2  0  0  0  0
  8  9  1  0  0  0  0
  3  4  2  0  0  0  0
  4  5  1  0  0  0  0
M  END
