
  MJ192500                      

 13 13  0  0  0  0  0  0  0  0999 V2000
   -2.8795    1.1598    0.0000 C   0  0  0  0  0  0  0  0  0  0  0  0
   -3.5939    0.7473    0.0000 C   0  0  0  0  0  0  0  0  0  0  0  0
   -3.5939   -0.0777    0.0000 C   0  0  0  0  0  0  0  0  0  0  0  0
   -2.8795   -0.4902    0.0000 C   0  0  0  0  0  0  0  0  0  0  0  0
   -2.1650   -0.0777    0.0000 C   0  0  0  0  0  0  0  0  0  0  0  0
   -2.1650    0.7473    0.0000 C   0  0  0  0  0  0  0  0  0  0  0  0
   -2.8795   -1.3152    0.0000 O   0  0  0  0  0  0  0  0  0  0  0  0
   -2.8624   -2.2534    0.0000 C   0  0  0  0  0  0  0  0  0  0  0  0
   -3.5693   -2.6788    0.0000 C   0  0  0  0  0  0  0  0  0  0  0  0
   -2.8795    1.9848    0.0000 C   0  0  0  0  0  0  0  0  0  0  0  0
   -2.2121    2.4697    0.0000 C   0  0  0  0  0  0  0  0  0  0  0  0
   -1.5446    1.9848    0.0000 O   0  0  0  0  0  0  0  0  0  0  0  0
   -2.2121    3.2947    0.0000 O   0  0  0  0  0  0  0  0  0  0  0  0
  1  2  2  0  0  0  0
  2  3  1  0  0  0  0
  3  4  2  0  0  0  0
  4  5  1  0  0  0  0
  5  6  2  0  0  0  0
  6  1  1  0  0  0  0
  4  7  1  0  0  0  0
  7  8  1  0  0  0  0
  8  9  1  0  0  0  0
  1 10  1  0  0  0  0
 10 11  1  0  0  0  0
 11 12  1  0  0  0  0
 11 13  2  0  0  0  0
M  END
