MODEL 1
REMARK VINA RESULT:    -5.065      0.000      0.000
REMARK INTER + INTRA:          -6.553
REMARK INTER:                  -6.247
REMARK INTRA:                  -0.305
REMARK UNBOUND:                -0.303
REMARK  Name = 
REMARK  5 active torsions:
REMARK  status: ('A' for Active; 'I' for Inactive)
REMARK    1  A    between atoms: C_1  and  C_10
REMARK    2  A    between atoms: C_4  and  O_7
REMARK    3  A    between atoms: O_7  and  C_8
REMARK    4  A    between atoms: C_8  and  C_9
REMARK    5  A    between atoms: C_10  and  C_11
REMARK                            x       y       z     vdW  Elec       q    Type
REMARK                         _______ _______ _______ _____ _____    ______ ____
ROOT
ATOM      1  C   UNL     1      19.725 -33.982 -19.908  0.00  0.00    -0.042 A 
ATOM      2  C   UNL     1      19.380 -33.005 -20.847  0.00  0.00    +0.007 A 
ATOM      3  C   UNL     1      19.406 -33.296 -22.214  0.00  0.00    +0.046 A 
ATOM      4  C   UNL     1      19.784 -34.562 -22.666  0.00  0.00    +0.121 A 
ATOM      5  C   UNL     1      20.131 -35.540 -21.736  0.00  0.00    +0.046 A 
ATOM      6  C   UNL     1      20.097 -35.251 -20.366  0.00  0.00    +0.007 A 
ENDROOT
BRANCH   1   7
ATOM      7  C   UNL     1      19.659 -33.688 -18.428  0.00  0.00    +0.087 C 
BRANCH   7   8
ATOM      8  C   UNL     1      18.281 -33.954 -17.820  0.00  0.00    +0.046 C 
ATOM      9  O   UNL     1      18.155 -35.065 -17.225  0.00  0.00    -0.549 OA
ATOM     10  O   UNL     1      17.411 -33.059 -18.031  0.00  0.00    -0.549 OA
ENDBRANCH   7   8
ENDBRANCH   1   7
BRANCH   4  11
ATOM     11  O   UNL     1      19.762 -34.718 -24.027  0.00  0.00    -0.492 OA
BRANCH  11  12
ATOM     12  C   UNL     1      20.676 -33.916 -24.773  0.00  0.00    +0.225 C 
ATOM     13  C   UNL     1      22.060 -34.522 -24.622  0.00  0.00    +0.048 C 
ENDBRANCH  11  12
ENDBRANCH   4  11
TORSDOF 4
ENDMDL
MODEL 2
REMARK VINA RESULT:    -5.058      0.186      1.345
REMARK INTER + INTRA:          -6.544
REMARK INTER:                  -6.257
REMARK INTRA:                  -0.287
REMARK UNBOUND:                -0.303
REMARK  Name = 
REMARK  5 active torsions:
REMARK  status: ('A' for Active; 'I' for Inactive)
REMARK    1  A    between atoms: C_1  and  C_10
REMARK    2  A    between atoms: C_4  and  O_7
REMARK    3  A    between atoms: O_7  and  C_8
REMARK    4  A    between atoms: C_8  and  C_9
REMARK    5  A    between atoms: C_10  and  C_11
REMARK                            x       y       z     vdW  Elec       q    Type
REMARK                         _______ _______ _______ _____ _____    ______ ____
ROOT
ATOM      1  C   UNL     1      19.706 -33.979 -19.926  0.00  0.00    -0.042 A 
ATOM      2  C   UNL     1      20.214 -35.210 -20.354  0.00  0.00    +0.007 A 
ATOM      3  C   UNL     1      20.320 -35.497 -21.718  0.00  0.00    +0.046 A 
ATOM      4  C   UNL     1      19.914 -34.564 -22.676  0.00  0.00    +0.121 A 
ATOM      5  C   UNL     1      19.406 -33.337 -22.256  0.00  0.00    +0.046 A 
ATOM      6  C   UNL     1      19.307 -33.046 -20.890  0.00  0.00    +0.007 A 
ENDROOT
BRANCH   1   7
ATOM      7  C   UNL     1      19.628 -33.646 -18.455  0.00  0.00    +0.087 C 
BRANCH   7   8
ATOM      8  C   UNL     1      18.252 -33.921 -17.845  0.00  0.00    +0.046 C 
ATOM      9  O   UNL     1      18.144 -35.017 -17.221  0.00  0.00    -0.549 OA
ATOM     10  O   UNL     1      17.367 -33.048 -18.084  0.00  0.00    -0.549 OA
ENDBRANCH   7   8
ENDBRANCH   1   7
BRANCH   4  11
ATOM     11  O   UNL     1      20.075 -34.967 -23.975  0.00  0.00    -0.492 OA
BRANCH  11  12
ATOM     12  C   UNL     1      20.898 -34.143 -24.798  0.00  0.00    +0.225 C 
ATOM     13  C   UNL     1      22.328 -34.637 -24.674  0.00  0.00    +0.048 C 
ENDBRANCH  11  12
ENDBRANCH   4  11
TORSDOF 4
ENDMDL
MODEL 3
REMARK VINA RESULT:    -4.725      1.601      2.074
REMARK INTER + INTRA:          -6.133
REMARK INTER:                  -5.748
REMARK INTRA:                  -0.386
REMARK UNBOUND:                -0.303
REMARK  Name = 
REMARK  5 active torsions:
REMARK  status: ('A' for Active; 'I' for Inactive)
REMARK    1  A    between atoms: C_1  and  C_10
REMARK    2  A    between atoms: C_4  and  O_7
REMARK    3  A    between atoms: O_7  and  C_8
REMARK    4  A    between atoms: C_8  and  C_9
REMARK    5  A    between atoms: C_10  and  C_11
REMARK                            x       y       z     vdW  Elec       q    Type
REMARK                         _______ _______ _______ _____ _____    ______ ____
ROOT
ATOM      1  C   UNL     1      19.385 -33.537 -20.869  0.00  0.00    -0.042 A 
ATOM      2  C   UNL     1      19.334 -33.282 -22.244  0.00  0.00    +0.007 A 
ATOM      3  C   UNL     1      19.792 -34.236 -23.158  0.00  0.00    +0.046 A 
ATOM      4  C   UNL     1      20.315 -35.453 -22.717  0.00  0.00    +0.121 A 
ATOM      5  C   UNL     1      20.371 -35.712 -21.348  0.00  0.00    +0.046 A 
ATOM      6  C   UNL     1      19.905 -34.761 -20.433  0.00  0.00    +0.007 A 
ENDROOT
BRANCH   1   7
ATOM      7  C   UNL     1      18.854 -32.530 -19.878  0.00  0.00    +0.087 C 
BRANCH   7   8
ATOM      8  C   UNL     1      17.842 -33.124 -18.895  0.00  0.00    +0.046 C 
ATOM      9  O   UNL     1      16.699 -33.374 -19.379  0.00  0.00    -0.549 OA
ATOM     10  O   UNL     1      18.248 -33.244 -17.703  0.00  0.00    -0.549 OA
ENDBRANCH   7   8
ENDBRANCH   1   7
BRANCH   4  11
ATOM     11  O   UNL     1      20.724 -36.299 -23.713  0.00  0.00    -0.492 OA
BRANCH  11  12
ATOM     12  C   UNL     1      19.748 -36.640 -24.697  0.00  0.00    +0.225 C 
ATOM     13  C   UNL     1      18.962 -37.831 -24.181  0.00  0.00    +0.048 C 
ENDBRANCH  11  12
ENDBRANCH   4  11
TORSDOF 4
ENDMDL
MODEL 4
REMARK VINA RESULT:    -4.546      1.532      5.524
REMARK INTER + INTRA:          -5.913
REMARK INTER:                  -5.680
REMARK INTRA:                  -0.233
REMARK UNBOUND:                -0.303
REMARK  Name = 
REMARK  5 active torsions:
REMARK  status: ('A' for Active; 'I' for Inactive)
REMARK    1  A    between atoms: C_1  and  C_10
REMARK    2  A    between atoms: C_4  and  O_7
REMARK    3  A    between atoms: O_7  and  C_8
REMARK    4  A    between atoms: C_8  and  C_9
REMARK    5  A    between atoms: C_10  and  C_11
REMARK                            x       y       z     vdW  Elec       q    Type
REMARK                         _______ _______ _______ _____ _____    ______ ____
ROOT
ATOM      1  C   UNL     1      19.722 -33.676 -21.791  0.00  0.00    -0.042 A 
ATOM      2  C   UNL     1      20.053 -34.941 -21.294  0.00  0.00    +0.007 A 
ATOM      3  C   UNL     1      19.807 -35.262 -19.955  0.00  0.00    +0.046 A 
ATOM      4  C   UNL     1      19.235 -34.325 -19.091  0.00  0.00    +0.121 A 
ATOM      5  C   UNL     1      18.905 -33.063 -19.580  0.00  0.00    +0.046 A 
ATOM      6  C   UNL     1      19.144 -32.743 -20.922  0.00  0.00    +0.007 A 
ENDROOT
BRANCH   1   7
ATOM      7  C   UNL     1      19.946 -33.336 -23.245  0.00  0.00    +0.087 C 
BRANCH   7   8
ATOM      8  C   UNL     1      18.891 -33.936 -24.176  0.00  0.00    +0.046 C 
ATOM      9  O   UNL     1      17.916 -33.177 -24.452  0.00  0.00    -0.549 OA
ATOM     10  O   UNL     1      19.087 -35.139 -24.516  0.00  0.00    -0.549 OA
ENDBRANCH   7   8
ENDBRANCH   1   7
BRANCH   4  11
ATOM     11  O   UNL     1      19.043 -34.767 -17.809  0.00  0.00    -0.492 OA
BRANCH  11  12
ATOM     12  C   UNL     1      18.098 -35.821 -17.636  0.00  0.00    +0.225 C 
ATOM     13  C   UNL     1      18.773 -36.930 -16.851  0.00  0.00    +0.048 C 
ENDBRANCH  11  12
ENDBRANCH   4  11
TORSDOF 4
ENDMDL
MODEL 5
REMARK VINA RESULT:    -4.403      1.350      2.194
REMARK INTER + INTRA:          -5.736
REMARK INTER:                  -5.811
REMARK INTRA:                   0.075
REMARK UNBOUND:                -0.303
REMARK  Name = 
REMARK  5 active torsions:
REMARK  status: ('A' for Active; 'I' for Inactive)
REMARK    1  A    between atoms: C_1  and  C_10
REMARK    2  A    between atoms: C_4  and  O_7
REMARK    3  A    between atoms: O_7  and  C_8
REMARK    4  A    between atoms: C_8  and  C_9
REMARK    5  A    between atoms: C_10  and  C_11
REMARK                            x       y       z     vdW  Elec       q    Type
REMARK                         _______ _______ _______ _____ _____    ______ ____
ROOT
ATOM      1  C   UNL     1      19.837 -34.327 -19.598  0.00  0.00    -0.042 A 
ATOM      2  C   UNL     1      20.247 -35.443 -20.335  0.00  0.00    +0.007 A 
ATOM      3  C   UNL     1      20.062 -35.484 -21.720  0.00  0.00    +0.046 A 
ATOM      4  C   UNL     1      19.458 -34.417 -22.390  0.00  0.00    +0.121 A 
ATOM      5  C   UNL     1      19.046 -33.303 -21.661  0.00  0.00    +0.046 A 
ATOM      6  C   UNL     1      19.238 -33.259 -20.276  0.00  0.00    +0.007 A 
ENDROOT
BRANCH   1   7
ATOM      7  C   UNL     1      20.072 -34.257 -18.108  0.00  0.00    +0.087 C 
BRANCH   7   8
ATOM      8  C   UNL     1      20.169 -35.634 -17.447  0.00  0.00    +0.046 C 
ATOM      9  O   UNL     1      21.309 -36.181 -17.498  0.00  0.00    -0.549 OA
ATOM     10  O   UNL     1      19.086 -36.088 -16.975  0.00  0.00    -0.549 OA
ENDBRANCH   7   8
ENDBRANCH   1   7
BRANCH   4  11
ATOM     11  O   UNL     1      19.341 -34.581 -23.745  0.00  0.00    -0.492 OA
BRANCH  11  12
ATOM     12  C   UNL     1      20.422 -34.097 -24.539  0.00  0.00    +0.225 C 
ATOM     13  C   UNL     1      20.272 -32.592 -24.665  0.00  0.00    +0.048 C 
ENDBRANCH  11  12
ENDBRANCH   4  11
TORSDOF 4
ENDMDL
MODEL 6
REMARK VINA RESULT:    -4.287      1.521      5.879
REMARK INTER + INTRA:          -5.593
REMARK INTER:                  -5.392
REMARK INTRA:                  -0.201
REMARK UNBOUND:                -0.303
REMARK  Name = 
REMARK  5 active torsions:
REMARK  status: ('A' for Active; 'I' for Inactive)
REMARK    1  A    between atoms: C_1  and  C_10
REMARK    2  A    between atoms: C_4  and  O_7
REMARK    3  A    between atoms: O_7  and  C_8
REMARK    4  A    between atoms: C_8  and  C_9
REMARK    5  A    between atoms: C_10  and  C_11
REMARK                            x       y       z     vdW  Elec       q    Type
REMARK                         _______ _______ _______ _____ _____    ______ ____
ROOT
ATOM      1  C   UNL     1      20.593 -34.533 -23.248  0.00  0.00    -0.042 A 
ATOM      2  C   UNL     1      21.086 -35.528 -22.396  0.00  0.00    +0.007 A 
ATOM      3  C   UNL     1      20.658 -35.599 -21.068  0.00  0.00    +0.046 A 
ATOM      4  C   UNL     1      19.738 -34.675 -20.565  0.00  0.00    +0.121 A 
ATOM      5  C   UNL     1      19.244 -33.681 -21.407  0.00  0.00    +0.046 A 
ATOM      6  C   UNL     1      19.667 -33.615 -22.740  0.00  0.00    +0.007 A 
ENDROOT
BRANCH   1   7
ATOM      7  C   UNL     1      21.019 -34.476 -24.695  0.00  0.00    +0.087 C 
BRANCH   7   8
ATOM      8  C   UNL     1      20.806 -35.794 -25.441  0.00  0.00    +0.046 C 
ATOM      9  O   UNL     1      21.751 -36.141 -26.211  0.00  0.00    -0.549 OA
ATOM     10  O   UNL     1      19.689 -36.356 -25.246  0.00  0.00    -0.549 OA
ENDBRANCH   7   8
ENDBRANCH   1   7
BRANCH   4  11
ATOM     11  O   UNL     1      19.399 -34.859 -19.251  0.00  0.00    -0.492 OA
BRANCH  11  12
ATOM     12  C   UNL     1      19.571 -33.737 -18.387  0.00  0.00    +0.225 C 
ATOM     13  C   UNL     1      18.214 -33.380 -17.810  0.00  0.00    +0.048 C 
ENDBRANCH  11  12
ENDBRANCH   4  11
TORSDOF 4
ENDMDL
MODEL 7
REMARK VINA RESULT:    -4.164      4.518      7.351
REMARK INTER + INTRA:          -5.441
REMARK INTER:                  -5.184
REMARK INTRA:                  -0.257
REMARK UNBOUND:                -0.303
REMARK  Name = 
REMARK  5 active torsions:
REMARK  status: ('A' for Active; 'I' for Inactive)
REMARK    1  A    between atoms: C_1  and  C_10
REMARK    2  A    between atoms: C_4  and  O_7
REMARK    3  A    between atoms: O_7  and  C_8
REMARK    4  A    between atoms: C_8  and  C_9
REMARK    5  A    between atoms: C_10  and  C_11
REMARK                            x       y       z     vdW  Elec       q    Type
REMARK                         _______ _______ _______ _____ _____    ______ ____
ROOT
ATOM      1  C   UNL     1      20.705 -37.793 -26.383  0.00  0.00    -0.042 A 
ATOM      2  C   UNL     1      21.387 -36.584 -26.555  0.00  0.00    +0.007 A 
ATOM      3  C   UNL     1      21.104 -35.489 -25.733  0.00  0.00    +0.046 A 
ATOM      4  C   UNL     1      20.132 -35.580 -24.734  0.00  0.00    +0.121 A 
ATOM      5  C   UNL     1      19.449 -36.781 -24.559  0.00  0.00    +0.046 A 
ATOM      6  C   UNL     1      19.737 -37.880 -25.376  0.00  0.00    +0.007 A 
ENDROOT
BRANCH   1   7
ATOM      7  C   UNL     1      21.035 -38.993 -27.239  0.00  0.00    +0.087 C 
BRANCH   7   8
ATOM      8  C   UNL     1      19.883 -39.994 -27.346  0.00  0.00    +0.046 C 
ATOM      9  O   UNL     1      20.010 -41.045 -26.651  0.00  0.00    -0.549 OA
ATOM     10  O   UNL     1      18.965 -39.682 -28.160  0.00  0.00    -0.549 OA
ENDBRANCH   7   8
ENDBRANCH   1   7
BRANCH   4  11
ATOM     11  O   UNL     1      19.956 -34.439 -23.997  0.00  0.00    -0.492 OA
BRANCH  11  12
ATOM     12  C   UNL     1      20.398 -33.222 -24.595  0.00  0.00    +0.225 C 
ATOM     13  C   UNL     1      19.169 -32.403 -24.948  0.00  0.00    +0.048 C 
ENDBRANCH  11  12
ENDBRANCH   4  11
TORSDOF 4
ENDMDL
MODEL 8
REMARK VINA RESULT:    -4.064      2.955      3.824
REMARK INTER + INTRA:          -5.318
REMARK INTER:                  -5.005
REMARK INTRA:                  -0.314
REMARK UNBOUND:                -0.303
REMARK  Name = 
REMARK  5 active torsions:
REMARK  status: ('A' for Active; 'I' for Inactive)
REMARK    1  A    between atoms: C_1  and  C_10
REMARK    2  A    between atoms: C_4  and  O_7
REMARK    3  A    between atoms: O_7  and  C_8
REMARK    4  A    between atoms: C_8  and  C_9
REMARK    5  A    between atoms: C_10  and  C_11
REMARK                            x       y       z     vdW  Elec       q    Type
REMARK                         _______ _______ _______ _____ _____    ______ ____
ROOT
ATOM      1  C   UNL     1      21.750 -36.418 -20.293  0.00  0.00    -0.042 A 
ATOM      2  C   UNL     1      21.883 -36.387 -21.685  0.00  0.00    +0.007 A 
ATOM      3  C   UNL     1      21.070 -35.550 -22.455  0.00  0.00    +0.046 A 
ATOM      4  C   UNL     1      20.108 -34.738 -21.851  0.00  0.00    +0.121 A 
ATOM      5  C   UNL     1      19.969 -34.765 -20.465  0.00  0.00    +0.046 A 
ATOM      6  C   UNL     1      20.788 -35.598 -19.692  0.00  0.00    +0.007 A 
ENDROOT
BRANCH   1   7
ATOM      7  C   UNL     1      22.652 -37.289 -19.450  0.00  0.00    +0.087 C 
BRANCH   7   8
ATOM      8  C   UNL     1      23.456 -36.501 -18.414  0.00  0.00    +0.046 C 
ATOM      9  O   UNL     1      23.248 -36.824 -17.207  0.00  0.00    -0.549 OA
ATOM     10  O   UNL     1      24.192 -35.583 -18.880  0.00  0.00    -0.549 OA
ENDBRANCH   7   8
ENDBRANCH   1   7
BRANCH   4  11
ATOM     11  O   UNL     1      19.384 -33.963 -22.717  0.00  0.00    -0.492 OA
BRANCH  11  12
ATOM     12  C   UNL     1      19.694 -34.098 -24.103  0.00  0.00    +0.225 C 
ATOM     13  C   UNL     1      20.123 -32.737 -24.620  0.00  0.00    +0.048 C 
ENDBRANCH  11  12
ENDBRANCH   4  11
TORSDOF 4
ENDMDL
MODEL 9
REMARK VINA RESULT:    -3.998      5.000      8.187
REMARK INTER + INTRA:          -5.236
REMARK INTER:                  -4.933
REMARK INTRA:                  -0.303
REMARK UNBOUND:                -0.303
REMARK  Name = 
REMARK  5 active torsions:
REMARK  status: ('A' for Active; 'I' for Inactive)
REMARK    1  A    between atoms: C_1  and  C_10
REMARK    2  A    between atoms: C_4  and  O_7
REMARK    3  A    between atoms: O_7  and  C_8
REMARK    4  A    between atoms: C_8  and  C_9
REMARK    5  A    between atoms: C_10  and  C_11
REMARK                            x       y       z     vdW  Elec       q    Type
REMARK                         _______ _______ _______ _____ _____    ______ ____
ROOT
ATOM      1  C   UNL     1      20.504 -38.973 -26.399  0.00  0.00    -0.042 A 
ATOM      2  C   UNL     1      19.635 -38.201 -25.620  0.00  0.00    +0.007 A 
ATOM      3  C   UNL     1      19.905 -36.850 -25.386  0.00  0.00    +0.046 A 
ATOM      4  C   UNL     1      21.048 -36.249 -25.919  0.00  0.00    +0.121 A 
ATOM      5  C   UNL     1      21.918 -37.013 -26.695  0.00  0.00    +0.046 A 
ATOM      6  C   UNL     1      21.644 -38.364 -26.935  0.00  0.00    +0.007 A 
ENDROOT
BRANCH   1   7
ATOM      7  C   UNL     1      20.197 -40.423 -26.690  0.00  0.00    +0.087 C 
BRANCH   7   8
ATOM      8  C   UNL     1      19.854 -40.685 -28.158  0.00  0.00    +0.046 C 
ATOM      9  O   UNL     1      18.850 -40.053 -28.602  0.00  0.00    -0.549 OA
ATOM     10  O   UNL     1      20.577 -41.545 -28.740  0.00  0.00    -0.549 OA
ENDBRANCH   7   8
ENDBRANCH   1   7
BRANCH   4  11
ATOM     11  O   UNL     1      21.192 -34.920 -25.620  0.00  0.00    -0.492 OA
BRANCH  11  12
ATOM     12  C   UNL     1      20.454 -34.438 -24.499  0.00  0.00    +0.225 C 
ATOM     13  C   UNL     1      20.299 -32.936 -24.653  0.00  0.00    +0.048 C 
ENDBRANCH  11  12
ENDBRANCH   4  11
TORSDOF 4
ENDMDL
